data/nesta/nesta_case2746wop_mp.m
%%%%%%%%%%%%%%%%%%%%%%%%%%%%%%%%%%%%%%%%%%%%%%%%%%%%%%%%%%%%%%%%%%%%%%%%%%%
%%%%                                                                  %%%%%
%%%%      NICTA Energy System Test Case Archive (NESTA) - v0.1.5      %%%%%
%%%%              Optimal Power Flow - Typical Operation              %%%%%
%%%%                       30 - October - 2014                        %%%%%
%%%%                                                                  %%%%%
%%%%%%%%%%%%%%%%%%%%%%%%%%%%%%%%%%%%%%%%%%%%%%%%%%%%%%%%%%%%%%%%%%%%%%%%%%%
%
%   Power flow data for Polish system - winter 2003-04 off-peak.
%   Please see CASEFORMAT for details on the case file format.
%
%   This case represents the Polish 400, 220 and 110 kV networks during
%   winter 2003-04 off-peak conditions. Multiple centrally dispatchable
%   generators at a bus have not been aggregated. Generators that are
%   not centrally dispatchable in the Polish energy market are given a
%   cost of zero.
%
%   This data was graciously provided by, and is distributed with the
%   permission of, Roman Korab <roman.korab@polsl.pl>.
%
function mpc = nesta_case2746wop_mp
mpc.version = '2';
mpc.baseMVA = 100.0;

%% area data
%	area	refbus
mpc.areas = [
	1	 18;
];

%% bus data
%	bus_i	type	Pd	Qd	Gs	Bs	area	Vm	Va	baseKV	zone	Vmax	Vmin
mpc.bus = [
	1	 1	 0.0	 0.0	 0.0	 0.0	 1	     1.1003	    -5.8041	 220.0	 1	     1.1100	     0.9500;
	2	 1	 0.0	 0.0	 0.0	 0.0	 1	     1.1040	    -2.5081	 220.0	 1	     1.1100	     0.9500;
	3	 1	 0.0	 0.0	 0.0	 0.0	 1	     1.0727	   -22.6800	 220.0	 1	     1.1100	     0.9500;
	4	 1	 0.0	 0.0	 0.0	 0.0	 1	     1.0979	    -8.8291	 220.0	 1	     1.1100	     0.9500;
	5	 1	 0.0	 0.0	 0.0	 0.0	 1	     1.0979	    -8.8358	 220.0	 1	     1.1100	     0.9500;
	6	 1	 0.0	 0.0	 0.0	 0.0	 1	     1.0788	   -16.5036	 220.0	 1	     1.1100	     0.9500;
	7	 1	 0.0	 0.0	 0.0	 0.0	 1	     1.0788	   -16.4978	 220.0	 1	     1.1100	     0.9500;
	8	 1	 0.0	 0.0	 0.0	 -50.0	 1	     1.0296	   -14.9436	 400.0	 1	     1.0500	     0.9500;
	9	 1	 0.0	 0.0	 0.0	 0.0	 1	     1.0296	   -14.9452	 400.0	 1	     1.0500	     0.9500;
	10	 1	 0.0	 0.0	 0.0	 0.0	 1	     1.0765	   -16.8720	 220.0	 1	     1.1100	     0.9500;
	11	 1	 0.0	 0.0	 0.0	 0.0	 1	     1.0764	   -16.8851	 220.0	 1	     1.1100	     0.9500;
	12	 1	 0.0	 0.0	 0.0	 0.0	 1	     1.0764	   -16.8786	 220.0	 1	     1.1100	     0.9500;
	13	 1	 0.0	 0.0	 0.0	 -50.0	 1	     1.0247	   -13.1675	 400.0	 1	     1.0500	     0.9500;
	14	 1	 0.0	 0.0	 0.0	 0.0	 1	     1.0248	   -13.1622	 400.0	 1	     1.0500	     0.9500;
	15	 1	 0.0	 0.0	 0.0	 0.0	 1	     1.0391	   -16.2173	 400.0	 1	     1.0500	     0.9500;
	16	 1	 0.0	 0.0	 0.0	 0.0	 1	     1.0391	   -16.2173	 400.0	 1	     1.0500	     0.9500;
	17	 2	 2.302	 31.0	 0.0	 0.0	 1	     1.1007	   -18.6346	 220.0	 1	     1.1100	     0.9500;
	18	 2	 9.7	 40.0	 0.0	 0.0	 1	     1.1009	   -18.6368	 220.0	 1	     1.1100	     0.9500;
	19	 1	 0.0	 0.0	 0.0	 0.0	 1	     1.0998	    -8.0294	 220.0	 1	     1.1100	     0.9500;
	20	 1	 0.0	 0.0	 0.0	 0.0	 1	     1.0998	    -8.0257	 220.0	 1	     1.1100	     0.9500;
	21	 1	 0.0	 0.0	 0.0	 0.0	 1	     1.0908	   -18.5795	 220.0	 1	     1.1100	     0.9500;
	22	 1	 0.0	 0.0	 0.0	 0.0	 1	     1.0908	   -18.5795	 220.0	 1	     1.1100	     0.9500;
	23	 1	 0.0	 0.0	 0.0	 0.0	 1	     1.0768	   -16.8287	 220.0	 1	     1.1100	     0.9500;
	24	 1	 0.0	 0.0	 0.0	 0.0	 1	     1.1002	    -5.9666	 220.0	 1	     1.1100	     0.9500;
	25	 1	 0.0	 0.0	 0.0	 -50.0	 1	     1.0209	   -17.6458	 400.0	 1	     1.0500	     0.9500;
	26	 2	 28.565	 42.054	 0.0	 0.0	 1	     1.1094	    -5.6168	 220.0	 1	     1.1100	     0.9500;
	27	 2	 85.005	 122.06	 0.0	 0.0	 1	     1.1100	    -2.2753	 220.0	 1	     1.1100	     0.9500;
	28	 3	 44.783	 80.0	 0.0	 0.0	 1	     1.0484	    -4.4130	 400.0	 1	     1.0500	     0.9500;
	29	 2	 60.097	 90.0	 0.0	 0.0	 1	     1.0484	    -4.4039	 400.0	 1	     1.0500	     0.9500;
	30	 1	 0.0	 0.0	 0.0	 0.0	 1	     1.0806	   -18.0483	 220.0	 1	     1.1100	     0.9500;
	31	 1	 0.0	 0.0	 0.0	 0.0	 1	     1.0490	    -5.4090	 400.0	 1	     1.0500	     0.9500;
	32	 1	 0.0	 0.0	 0.0	 0.0	 1	     1.0751	   -17.0320	 220.0	 1	     1.1100	     0.9500;
	33	 1	 0.0	 0.0	 0.0	 0.0	 1	     1.1002	    -5.9658	 220.0	 1	     1.1100	     0.9500;
	34	 1	 0.0	 0.0	 0.0	 0.0	 1	     1.1001	   -11.7004	 220.0	 1	     1.1100	     0.9500;
	35	 1	 0.0	 0.0	 0.0	 0.0	 1	     1.0930	   -14.6722	 220.0	 2	     1.1100	     0.9500;
	36	 1	 0.0	 0.0	 0.0	 0.0	 1	     1.0813	   -15.0952	 220.0	 2	     1.1100	     0.9500;
	37	 1	 0.0	 0.0	 0.0	 0.0	 1	     1.0905	   -14.1161	 220.0	 2	     1.1100	     0.9500;
	38	 1	 0.0	 0.0	 0.0	 0.0	 1	     1.0905	   -14.1190	 220.0	 2	     1.1100	     0.9500;
	39	 1	 0.0	 0.0	 0.0	 0.0	 1	     1.0853	   -15.7179	 220.0	 2	     1.1100	     0.9500;
	40	 1	 0.0	 0.0	 0.0	 0.0	 1	     1.1100	   -13.4257	 220.0	 2	     1.1100	     0.9500;
	41	 1	 0.0	 0.0	 0.0	 0.0	 1	     1.1099	   -13.4287	 220.0	 2	     1.1100	     0.9500;
	42	 1	 0.0	 0.0	 0.0	 0.0	 1	     1.0264	   -13.4880	 400.0	 2	     1.0500	     0.9500;
	43	 2	 12.0	 0.0	 0.0	 0.0	 1	     1.0984	   -13.3077	 220.0	 2	     1.1100	     0.9500;
	44	 2	 24.0	 0.0	 0.0	 0.0	 1	     1.0983	   -13.2924	 220.0	 2	     1.1100	     0.9500;
	45	 2	 20.0	 0.0	 0.0	 0.0	 1	     1.0326	   -13.2325	 400.0	 2	     1.0500	     0.9500;
	46	 1	 0.0	 0.0	 0.0	 0.0	 1	     1.0326	   -13.2342	 400.0	 2	     1.0500	     0.9500;
	47	 1	 0.0	 0.0	 0.0	 0.0	 1	     1.1087	   -13.8560	 220.0	 2	     1.1100	     0.9500;
	48	 1	 0.0	 0.0	 0.0	 0.0	 1	     1.0285	   -17.1783	 400.0	 2	     1.0500	     0.9500;
	49	 1	 0.0	 0.0	 0.0	 0.0	 1	     1.0284	   -17.1839	 400.0	 2	     1.0500	     0.9500;
	50	 1	 0.0	 0.0	 0.0	 0.0	 1	     1.0284	   -13.7158	 400.0	 2	     1.0500	     0.9500;
	51	 1	 0.0	 0.0	 0.0	 0.0	 1	     1.0854	   -14.8272	 220.0	 2	     1.1100	     0.9500;
	52	 1	 0.0	 0.0	 0.0	 0.0	 1	     1.0854	   -14.8241	 220.0	 2	     1.1100	     0.9500;
	53	 1	 0.0	 0.0	 0.0	 0.0	 1	     1.0368	   -13.9754	 400.0	 2	     1.0500	     0.9500;
	54	 1	 0.0	 0.0	 0.0	 0.0	 1	     1.0368	   -13.9757	 400.0	 2	     1.0500	     0.9500;
	55	 2	 12.0	 0.0	 0.0	 0.0	 1	     1.0934	   -13.2417	 220.0	 2	     1.1100	     0.9500;
	56	 2	 12.0	 0.0	 0.0	 0.0	 1	     1.0933	   -13.2414	 220.0	 2	     1.1100	     0.9500;
	57	 2	 12.0	 0.0	 0.0	 0.0	 1	     1.0399	   -13.6026	 400.0	 2	     1.0500	     0.9500;
	58	 2	 12.0	 0.0	 0.0	 0.0	 1	     1.0399	   -13.6073	 400.0	 2	     1.0500	     0.9500;
	59	 2	 170.733	 62.0	 0.0	 0.0	 1	     1.0905	   -14.3408	 220.0	 2	     1.1100	     0.9500;
	60	 1	 0.0	 0.0	 0.0	 0.0	 1	     1.0906	   -14.3368	 220.0	 2	     1.1100	     0.9500;
	61	 1	 0.0	 0.0	 0.0	 0.0	 1	     1.1039	   -13.9786	 220.0	 2	     1.1100	     0.9500;
	62	 1	 0.0	 0.0	 0.0	 0.0	 1	     1.0972	   -14.1224	 220.0	 2	     1.1100	     0.9500;
	63	 1	 0.0	 0.0	 0.0	 0.0	 1	     1.0972	   -14.1241	 220.0	 2	     1.1100	     0.9500;
	64	 1	 0.0	 0.0	 0.0	 0.0	 1	     1.0393	   -14.8345	 400.0	 2	     1.0500	     0.9500;
	65	 1	 0.0	 0.0	 0.0	 0.0	 1	     1.0393	   -14.8453	 400.0	 2	     1.0500	     0.9500;
	66	 1	 0.0	 0.0	 0.0	 0.0	 1	     1.0886	   -14.8515	 220.0	 2	     1.1100	     0.9500;
	67	 1	 0.0	 0.0	 0.0	 0.0	 1	     1.0900	   -14.7013	 220.0	 2	     1.1100	     0.9500;
	68	 1	 0.0	 0.0	 0.0	 0.0	 1	     1.0847	   -14.1358	 220.0	 2	     1.1100	     0.9500;
	69	 1	 0.0	 0.0	 0.0	 0.0	 1	     1.0985	    -9.2101	 220.0	 3	     1.1100	     0.9500;
	70	 1	 6.8	 0.0	 0.0	 0.0	 1	     1.0976	   -14.3956	 220.0	 3	     1.1100	     0.9500;
	71	 1	 11.331	 2.43	 0.0	 0.0	 1	     1.0975	   -14.4034	 220.0	 3	     1.1100	     0.9500;
	72	 1	 0.0	 0.0	 0.0	 0.0	 1	     1.0947	   -13.2037	 220.0	 3	     1.1100	     0.9500;
	73	 1	 0.0	 0.0	 0.0	 0.0	 1	     1.0947	   -13.1883	 220.0	 3	     1.1100	     0.9500;
	74	 1	 0.0	 0.0	 0.0	 0.0	 1	     1.1052	   -10.7408	 220.0	 3	     1.1100	     0.9500;
	75	 1	 0.0	 0.0	 0.0	 0.0	 1	     1.1051	   -10.7458	 220.0	 3	     1.1100	     0.9500;
	76	 1	 0.0	 0.0	 0.0	 0.0	 1	     1.0978	   -17.5822	 220.0	 3	     1.1100	     0.9500;
	77	 1	 0.0	 0.0	 0.0	 0.0	 1	     1.0977	   -17.5941	 220.0	 3	     1.1100	     0.9500;
	78	 2	 26.999	 69.999	 0.0	 0.0	 1	     1.0965	   -12.1361	 220.0	 3	     1.1100	     0.9500;
	79	 2	 8.999	 20.999	 0.0	 0.0	 1	     1.0979	   -12.7134	 220.0	 3	     1.1100	     0.9500;
	80	 1	 10.085	 1.376	 0.0	 0.0	 1	     1.0932	   -12.5077	 220.0	 3	     1.1100	     0.9500;
	81	 1	 0.0	 0.0	 0.0	 0.0	 1	     1.0932	   -12.5111	 220.0	 3	     1.1100	     0.9500;
	82	 2	 34.999	 107.999	 0.0	 0.0	 1	     1.0444	    -6.4721	 400.0	 3	     1.0500	     0.9500;
	83	 1	 0.0	 0.0	 0.0	 0.0	 1	     1.1049	   -10.2935	 220.0	 3	     1.1100	     0.9500;
	84	 1	 0.0	 0.0	 0.0	 0.0	 1	     1.1027	   -11.3677	 220.0	 3	     1.1100	     0.9500;
	85	 1	 0.0	 0.0	 0.0	 0.0	 1	     1.1026	   -11.3770	 220.0	 3	     1.1100	     0.9500;
	86	 1	 44.148	 10.561	 0.0	 0.0	 1	     1.0984	    -9.2864	 220.0	 3	     1.1100	     0.9500;
	87	 1	 0.0	 0.0	 0.0	 0.0	 1	     1.0984	    -9.2915	 220.0	 3	     1.1100	     0.9500;
	88	 1	 0.0	 0.0	 0.0	 0.0	 1	     1.0938	   -11.3077	 220.0	 3	     1.1100	     0.9500;
	89	 1	 0.0	 0.0	 0.0	 0.0	 1	     1.0938	   -11.3145	 220.0	 3	     1.1100	     0.9500;
	90	 1	 0.0	 0.0	 0.0	 0.0	 1	     1.1007	    -8.8485	 220.0	 3	     1.1100	     0.9500;
	91	 1	 0.0	 0.0	 0.0	 0.0	 1	     1.1007	    -8.8443	 220.0	 3	     1.1100	     0.9500;
	92	 1	 0.0	 0.0	 0.0	 0.0	 1	     1.0495	    -6.6628	 400.0	 3	     1.0500	     0.9500;
	93	 1	 0.0	 0.0	 0.0	 0.0	 1	     1.0495	    -6.6630	 400.0	 3	     1.0500	     0.9500;
	94	 1	 0.0	 0.0	 0.0	 0.0	 1	     1.1018	   -10.6984	 220.0	 3	     1.1100	     0.9500;
	95	 1	 0.0	 0.0	 0.0	 0.0	 1	     1.1019	   -10.6985	 220.0	 3	     1.1100	     0.9500;
	96	 1	 0.0	 0.0	 0.0	 0.0	 1	     1.1058	   -10.4798	 220.0	 3	     1.1100	     0.9500;
	97	 1	 0.0	 0.0	 0.0	 0.0	 1	     1.1058	   -10.4789	 220.0	 3	     1.1100	     0.9500;
	98	 1	 17.111	 6.317	 0.0	 0.0	 1	     1.0963	   -12.4278	 220.0	 3	     1.1100	     0.9500;
	99	 1	 0.0	 0.0	 0.0	 0.0	 1	     1.0963	   -12.4237	 220.0	 3	     1.1100	     0.9500;
	100	 1	 0.0	 0.0	 0.0	 0.0	 1	     1.0977	   -14.3778	 220.0	 3	     1.1100	     0.9500;
	101	 1	 0.0	 0.0	 0.0	 0.0	 1	     1.0977	   -14.3796	 220.0	 3	     1.1100	     0.9500;
	102	 1	 0.0	 0.0	 0.0	 0.0	 1	     1.0969	   -16.8006	 220.0	 3	     1.1100	     0.9500;
	103	 1	 0.0	 0.0	 0.0	 0.0	 1	     1.0968	   -16.7885	 220.0	 3	     1.1100	     0.9500;
	104	 2	 13.999	 39.999	 0.0	 0.0	 1	     1.1059	   -10.7375	 220.0	 3	     1.1100	     0.9500;
	105	 2	 0.0	 0.0	 0.0	 0.0	 1	     1.1059	   -10.7501	 220.0	 3	     1.1100	     0.9500;
	106	 2	 6.999	 17.999	 0.0	 0.0	 1	     1.0999	   -10.5534	 220.0	 3	     1.1100	     0.9500;
	107	 2	 7.999	 14.999	 0.0	 0.0	 1	     1.0997	   -10.5558	 220.0	 3	     1.1100	     0.9500;
	108	 1	 52.726	 17.138	 0.0	 0.0	 1	     1.0957	   -11.9483	 220.0	 3	     1.1100	     0.9500;
	109	 1	 56.444	 10.902	 0.0	 0.0	 1	     1.0957	   -11.9615	 220.0	 3	     1.1100	     0.9500;
	110	 1	 0.0	 0.0	 0.0	 0.0	 1	     1.0939	   -13.5682	 220.0	 3	     1.1100	     0.9500;
	111	 1	 0.0	 0.0	 0.0	 0.0	 1	     1.0939	   -11.6207	 220.0	 3	     1.1100	     0.9500;
	112	 1	 0.0	 0.0	 0.0	 0.0	 1	     1.0939	   -11.6251	 220.0	 3	     1.1100	     0.9500;
	113	 1	 0.0	 0.0	 0.0	 0.0	 1	     1.0929	   -12.7468	 220.0	 3	     1.1100	     0.9500;
	114	 1	 0.0	 0.0	 0.0	 0.0	 1	     1.0929	   -12.7422	 220.0	 3	     1.1100	     0.9500;
	115	 1	 0.0	 0.0	 0.0	 0.0	 1	     1.0401	    -9.1866	 400.0	 3	     1.0500	     0.9500;
	116	 2	 0.0	 0.0	 0.0	 0.0	 1	     1.0958	   -12.4857	 220.0	 3	     1.1100	     0.9500;
	117	 2	 7.999	 14.999	 0.0	 0.0	 1	     1.0957	   -12.4761	 220.0	 3	     1.1100	     0.9500;
	118	 2	 5.499	 9.999	 0.0	 0.0	 1	     1.0999	   -13.1652	 220.0	 3	     1.1100	     0.9500;
	119	 1	 0.0	 0.0	 0.0	 0.0	 1	     1.0999	   -13.1706	 220.0	 3	     1.1100	     0.9500;
	120	 1	 0.0	 0.0	 0.0	 0.0	 1	     1.0430	   -13.5814	 400.0	 3	     1.0500	     0.9500;
	121	 1	 0.0	 0.0	 0.0	 0.0	 1	     1.0430	   -13.5743	 400.0	 3	     1.0500	     0.9500;
	122	 1	 0.0	 0.0	 0.0	 0.0	 1	     1.0434	    -9.3422	 400.0	 3	     1.0500	     0.9500;
	123	 1	 0.0	 0.0	 0.0	 0.0	 1	     1.0435	    -9.3407	 400.0	 3	     1.0500	     0.9500;
	124	 1	 0.0	 0.0	 0.0	 0.0	 1	     1.0942	   -13.5980	 220.0	 3	     1.1100	     0.9500;
	125	 2	 19.213	 21.474	 0.0	 0.0	 1	     1.1100	    -9.7386	 220.0	 3	     1.1100	     0.9500;
	126	 2	 30.672	 33.602	 0.0	 0.0	 1	     1.1099	    -9.7467	 220.0	 3	     1.1100	     0.9500;
	127	 2	 27.999	 65.999	 0.0	 0.0	 1	     1.0401	    -8.1112	 400.0	 3	     1.0500	     0.9500;
	128	 1	 0.0	 0.0	 0.0	 0.0	 1	     1.0401	    -8.1211	 400.0	 3	     1.0500	     0.9500;
	129	 1	 0.0	 0.0	 0.0	 0.0	 1	     1.0981	    -9.3932	 220.0	 3	     1.1100	     0.9500;
	130	 1	 0.0	 0.0	 0.0	 0.0	 1	     1.0981	    -9.3921	 220.0	 3	     1.1100	     0.9500;
	131	 1	 0.0	 0.0	 0.0	 0.0	 1	     1.0994	    -9.2111	 220.0	 3	     1.1100	     0.9500;
	132	 2	 271.999	 -62.001	 0.0	 0.0	 1	     1.0991	   -18.4134	 220.0	 3	     1.1100	     0.9500;
	133	 2	 266.5	 -24.8	 0.0	 0.0	 1	     1.0970	   -18.3982	 220.0	 3	     1.1100	     0.9500;
	134	 2	 14.931	 12.88	 0.0	 0.0	 1	     1.1065	   -13.4621	 220.0	 4	     1.1100	     0.9500;
	135	 2	 8.013	 6.525	 0.0	 0.0	 1	     1.1064	   -13.4709	 220.0	 4	     1.1100	     0.9500;
	136	 1	 0.0	 0.0	 0.0	 0.0	 1	     1.0815	   -16.2403	 220.0	 4	     1.1100	     0.9500;
	137	 1	 0.0	 0.0	 0.0	 0.0	 1	     1.0845	   -15.7378	 220.0	 4	     1.1100	     0.9500;
	138	 1	 0.0	 0.0	 0.0	 0.0	 1	     1.0450	   -13.3501	 400.0	 4	     1.0500	     0.9500;
	139	 1	 0.0	 0.0	 0.0	 0.0	 1	     1.0450	   -13.3463	 400.0	 4	     1.0500	     0.9500;
	140	 1	 0.0	 0.0	 0.0	 0.0	 1	     1.1045	   -22.5710	 220.0	 4	     1.1100	     0.9500;
	141	 1	 0.0	 0.0	 0.0	 0.0	 1	     1.0845	   -24.9702	 220.0	 4	     1.1100	     0.9500;
	142	 1	 0.0	 0.0	 0.0	 0.0	 1	     1.0845	   -24.9702	 220.0	 4	     1.1100	     0.9500;
	143	 1	 0.0	 0.0	 0.0	 0.0	 1	     1.0868	   -23.5534	 220.0	 4	     1.1100	     0.9500;
	144	 1	 0.0	 0.0	 0.0	 0.0	 1	     1.0905	   -14.9091	 220.0	 4	     1.1100	     0.9500;
	145	 1	 0.0	 0.0	 0.0	 0.0	 1	     1.0905	   -14.9091	 220.0	 4	     1.1100	     0.9500;
	146	 2	 55.255	 6.955	 0.0	 0.0	 1	     1.1011	   -16.8948	 220.0	 4	     1.1100	     0.9500;
	147	 2	 10.077	 8.4	 0.0	 0.0	 1	     1.1011	   -16.9041	 220.0	 4	     1.1100	     0.9500;
	148	 2	 11.5	 6.86	 0.0	 0.0	 1	     1.0848	   -24.0779	 220.0	 4	     1.1100	     0.9500;
	149	 1	 4.423	 1.347	 0.0	 0.0	 1	     1.0848	   -24.0923	 220.0	 4	     1.1100	     0.9500;
	150	 2	 12.633	 6.828	 0.0	 0.0	 1	     1.0209	   -25.7726	 400.0	 4	     1.0500	     0.9500;
	151	 2	 12.397	 10.045	 0.0	 0.0	 1	     1.0209	   -25.7787	 400.0	 4	     1.0500	     0.9500;
	152	 1	 0.0	 0.0	 0.0	 0.0	 1	     1.0895	   -22.6390	 220.0	 4	     1.1100	     0.9500;
	153	 1	 0.0	 0.0	 0.0	 0.0	 1	     1.0822	   -21.6579	 220.0	 4	     1.1100	     0.9500;
	154	 1	 0.0	 0.0	 0.0	 0.0	 1	     1.0823	   -21.6515	 220.0	 4	     1.1100	     0.9500;
	155	 2	 33.593	 44.976	 0.0	 0.0	 1	     1.0891	   -14.0123	 220.0	 4	     1.1100	     0.9500;
	156	 2	 33.832	 45.07	 0.0	 0.0	 1	     1.0889	   -14.0678	 220.0	 4	     1.1100	     0.9500;
	157	 1	 0.0	 0.0	 0.0	 0.0	 1	     1.0891	   -14.0123	 220.0	 4	     1.1100	     0.9500;
	158	 1	 0.0	 0.0	 0.0	 0.0	 1	     1.0341	   -13.0369	 400.0	 4	     1.0500	     0.9500;
	159	 2	 8.687	 17.49	 0.0	 0.0	 1	     1.0340	   -13.0347	 400.0	 4	     1.0500	     0.9500;
	160	 1	 0.0	 0.0	 0.0	 0.0	 1	     1.0843	   -25.0330	 220.0	 4	     1.1100	     0.9500;
	161	 1	 0.0	 0.0	 0.0	 0.0	 1	     1.0843	   -25.0330	 220.0	 4	     1.1100	     0.9500;
	162	 1	 0.0	 0.0	 0.0	 0.0	 1	     1.0500	   -12.5642	 400.0	 4	     1.0500	     0.9500;
	163	 1	 0.0	 0.0	 0.0	 0.0	 1	     1.0484	   -11.6381	 400.0	 4	     1.0500	     0.9500;
	164	 1	 0.0	 0.0	 0.0	 0.0	 1	     1.0484	   -11.6443	 400.0	 4	     1.0500	     0.9500;
	165	 2	 5.495	 9.587	 0.0	 0.0	 1	     1.1008	   -17.1387	 220.0	 4	     1.1100	     0.9500;
	166	 2	 10.099	 4.886	 0.0	 0.0	 1	     1.1007	   -17.1547	 220.0	 4	     1.1100	     0.9500;
	167	 1	 14.36	 13.623	 0.0	 0.0	 1	     1.1008	   -17.1400	 220.0	 4	     1.1100	     0.9500;
	168	 1	 0.0	 0.0	 0.0	 0.0	 1	     1.1079	   -28.1274	 220.0	 4	     1.1100	     0.9500;
	169	 1	 0.0	 0.0	 0.0	 0.0	 1	     1.0873	   -25.0670	 220.0	 4	     1.1100	     0.9500;
	170	 1	 0.0	 0.0	 0.0	 0.0	 1	     1.1100	   -23.5590	 220.0	 4	     1.1100	     0.9500;
	171	 1	 0.0	 0.0	 0.0	 0.0	 1	     1.1099	   -23.5582	 220.0	 4	     1.1100	     0.9500;
	172	 1	 0.0	 0.0	 0.0	 0.0	 1	     0.9640	   -24.6383	 400.0	 4	     1.0500	     0.9500;
	173	 1	 0.0	 0.0	 0.0	 0.0	 1	     0.9640	   -24.6383	 400.0	 4	     1.0500	     0.9500;
	174	 1	 0.0	 0.0	 0.0	 0.0	 1	     1.0697	   -20.9498	 220.0	 4	     1.1100	     0.9500;
	175	 1	 0.0	 0.0	 0.0	 0.0	 1	     1.0697	   -20.9479	 220.0	 4	     1.1100	     0.9500;
	176	 1	 0.0	 0.0	 0.0	 0.0	 1	     1.1083	   -23.7926	 220.0	 4	     1.1100	     0.9500;
	177	 1	 0.0	 0.0	 0.0	 0.0	 1	     1.0860	   -15.6782	 220.0	 4	     1.1100	     0.9500;
	178	 1	 0.0	 0.0	 0.0	 0.0	 1	     1.0860	   -15.6731	 220.0	 4	     1.1100	     0.9500;
	179	 1	 0.0	 0.0	 0.0	 0.0	 1	     1.0917	   -14.6837	 220.0	 4	     1.1100	     0.9500;
	180	 1	 0.0	 0.0	 0.0	 0.0	 1	     1.0917	   -14.6837	 220.0	 4	     1.1100	     0.9500;
	181	 1	 0.0	 0.0	 0.0	 0.0	 1	     1.0678	   -21.7612	 220.0	 4	     1.1100	     0.9500;
	182	 1	 0.0	 0.0	 0.0	 0.0	 1	     1.0639	   -24.7349	 220.0	 5	     1.1100	     0.9500;
	183	 1	 0.0	 0.0	 0.0	 0.0	 1	     1.1100	   -31.6943	 220.0	 5	     1.1100	     0.9500;
	184	 1	 0.0	 0.0	 0.0	 0.0	 1	     1.0275	   -31.3178	 400.0	 5	     1.0500	     0.9500;
	185	 1	 0.0	 0.0	 0.0	 0.0	 1	     1.0275	   -31.3109	 400.0	 5	     1.0500	     0.9500;
	186	 1	 0.0	 0.0	 0.0	 0.0	 1	     1.0179	   -33.6362	 400.0	 5	     1.0500	     0.9500;
	187	 1	 0.0	 0.0	 0.0	 0.0	 1	     1.0179	   -33.6438	 400.0	 5	     1.0500	     0.9500;
	188	 1	 0.0	 0.0	 0.0	 0.0	 1	     1.0779	   -31.8508	 220.0	 5	     1.1100	     0.9500;
	189	 1	 0.0	 0.0	 0.0	 0.0	 1	     1.0779	   -31.8542	 220.0	 5	     1.1100	     0.9500;
	190	 1	 0.0	 0.0	 0.0	 0.0	 1	     1.0609	   -26.8360	 220.0	 5	     1.1100	     0.9500;
	191	 1	 0.0	 0.0	 0.0	 0.0	 1	     1.0609	   -26.8337	 220.0	 5	     1.1100	     0.9500;
	192	 1	 0.0	 0.0	 0.0	 0.0	 1	     1.0062	   -26.3724	 400.0	 5	     1.0500	     0.9500;
	193	 1	 0.0	 0.0	 0.0	 0.0	 1	     1.0694	   -24.3325	 220.0	 5	     1.1100	     0.9500;
	194	 1	 0.0	 0.0	 0.0	 0.0	 1	     1.0694	   -24.3297	 220.0	 5	     1.1100	     0.9500;
	195	 1	 0.0	 0.0	 0.0	 0.0	 1	     1.0184	   -32.7631	 400.0	 5	     1.0500	     0.9500;
	196	 1	 0.0	 0.0	 0.0	 0.0	 1	     1.0184	   -32.7607	 400.0	 5	     1.0500	     0.9500;
	197	 1	 0.0	 0.0	 0.0	 0.0	 1	     1.0694	   -26.6067	 220.0	 5	     1.1100	     0.9500;
	198	 1	 0.0	 0.0	 0.0	 0.0	 1	     1.0693	   -26.5997	 220.0	 5	     1.1100	     0.9500;
	199	 1	 0.0	 0.0	 0.0	 0.0	 1	     1.0266	   -32.8535	 400.0	 5	     1.0500	     0.9500;
	200	 1	 0.0	 0.0	 0.0	 0.0	 1	     1.0267	   -32.8406	 400.0	 5	     1.0500	     0.9500;
...
];

%% generator data
%	bus	Pg	Qg	Qmax	Qmin	Vg	mBase	status	Pmax	Pmin	Pc1	Pc2	Qc1min	Qc1max	Qc2min	Qc2max	ramp_agc	ramp_10	ramp_30	ramp_q	apf
mpc.gen = [
	17	 140.0	 -10.0	 120.0	 -10.0	 1.09088	 233.2	 1	 200.0	 140.0	 0.0	 0.0	 0.0	 0.0	 0.0	 0.0	 0.0	 0.0	 0.0	 0.0	 0.0;
	18	 140.0	 91.8892	 120.0	 -10.0	 1.09091	 233.2	 1	 200.0	 140.0	 0.0	 0.0	 0.0	 0.0	 0.0	 0.0	 0.0	 0.0	 0.0	 0.0	 0.0;
	26	 0.0	 0.0	 220.0	 -10.0	 1.09091	 430.5	 0	 370.0	 290.0	 0.0	 0.0	 0.0	 0.0	 0.0	 0.0	 0.0	 0.0	 0.0	 0.0	 0.0;
	26	 360.0	 104.419	 220.0	 -10.0	 1.09091	 421.9	 1	 360.0	 290.0	 0.0	 0.0	 0.0	 0.0	 0.0	 0.0	 0.0	 0.0	 0.0	 0.0	 0.0;
	27	 360.0	 -10.0	 220.0	 -10.0	 1.09091	 421.9	 1	 360.0	 290.0	 0.0	 0.0	 0.0	 0.0	 0.0	 0.0	 0.0	 0.0	 0.0	 0.0	 0.0;
	27	 370.0	 80.9866	 220.0	 -10.0	 1.09091	 430.5	 1	 370.0	 290.0	 0.0	 0.0	 0.0	 0.0	 0.0	 0.0	 0.0	 0.0	 0.0	 0.0	 0.0;
	27	 370.0	 81.5609	 220.0	 -10.0	 1.09091	 430.5	 1	 370.0	 290.0	 0.0	 0.0	 0.0	 0.0	 0.0	 0.0	 0.0	 0.0	 0.0	 0.0	 0.0;
	28	 0.0	 0.0	 220.0	 -10.0	 1.0325	 430.5	 0	 370.0	 290.0	 0.0	 0.0	 0.0	 0.0	 0.0	 0.0	 0.0	 0.0	 0.0	 0.0	 0.0;
	28	 370.0	 -3.4539	 220.0	 -10.0	 1.0325	 430.5	 1	 370.0	 290.0	 0.0	 0.0	 0.0	 0.0	 0.0	 0.0	 0.0	 0.0	 0.0	 0.0	 0.0;
	28	 370.0	 -3.4539	 220.0	 -10.0	 1.0325	 430.5	 1	 370.0	 290.0	 0.0	 0.0	 0.0	 0.0	 0.0	 0.0	 0.0	 0.0	 0.0	 0.0	 0.0;
	29	 370.0	 -10.0	 220.0	 -10.0	 1.0325	 430.5	 1	 370.0	 290.0	 0.0	 0.0	 0.0	 0.0	 0.0	 0.0	 0.0	 0.0	 0.0	 0.0	 0.0;
	29	 370.0	 -10.0	 220.0	 -10.0	 1.0325	 430.5	 1	 370.0	 290.0	 0.0	 0.0	 0.0	 0.0	 0.0	 0.0	 0.0	 0.0	 0.0	 0.0	 0.0;
	29	 370.0	 -10.0	 220.0	 -10.0	 1.0325	 430.5	 1	 370.0	 290.0	 0.0	 0.0	 0.0	 0.0	 0.0	 0.0	 0.0	 0.0	 0.0	 0.0	 0.0;
	43	 135.0	 -20.0	 120.0	 -20.0	 1.09091	 246.2	 1	 215.0	 135.0	 0.0	 0.0	 0.0	 0.0	 0.0	 0.0	 0.0	 0.0	 0.0	 0.0	 0.0;
	43	 0.0	 0.0	 120.0	 -20.0	 1.09091	 275.3	 0	 247.8	 135.0	 0.0	 0.0	 0.0	 0.0	 0.0	 0.0	 0.0	 0.0	 0.0	 0.0	 0.0;
	43	 0.0	 0.0	 120.0	 -20.0	 1.09091	 275.3	 0	 247.8	 135.0	 0.0	 0.0	 0.0	 0.0	 0.0	 0.0	 0.0	 0.0	 0.0	 0.0	 0.0;
	44	 135.0	 -20.0	 120.0	 -20.0	 1.09096	 255.0	 1	 225.0	 135.0	 0.0	 0.0	 0.0	 0.0	 0.0	 0.0	 0.0	 0.0	 0.0	 0.0	 0.0;
	44	 135.0	 -20.0	 120.0	 -20.0	 1.09096	 255.0	 1	 225.0	 135.0	 0.0	 0.0	 0.0	 0.0	 0.0	 0.0	 0.0	 0.0	 0.0	 0.0	 0.0;
	44	 0.0	 0.0	 120.0	 -20.0	 1.09096	 255.0	 0	 225.0	 135.0	 0.0	 0.0	 0.0	 0.0	 0.0	 0.0	 0.0	 0.0	 0.0	 0.0	 0.0;
	45	 0.0	 0.0	 350.0	 -40.0	 1.0325	 610.3	 0	 500.0	 350.0	 0.0	 0.0	 0.0	 0.0	 0.0	 0.0	 0.0	 0.0	 0.0	 0.0	 0.0;
	45	 350.0	 -40.0	 350.0	 -40.0	 1.0325	 610.3	 1	 500.0	 350.0	 0.0	 0.0	 0.0	 0.0	 0.0	 0.0	 0.0	 0.0	 0.0	 0.0	 0.0;
	55	 130.0	 -20.0	 120.0	 -20.0	 1.09121	 255.0	 1	 225.0	 130.0	 0.0	 0.0	 0.0	 0.0	 0.0	 0.0	 0.0	 0.0	 0.0	 0.0	 0.0;
	56	 130.0	 -20.0	 120.0	 -20.0	 1.09115	 255.0	 1	 225.0	 130.0	 0.0	 0.0	 0.0	 0.0	 0.0	 0.0	 0.0	 0.0	 0.0	 0.0	 0.0;
	56	 0.0	 0.0	 120.0	 -20.0	 1.09115	 255.0	 0	 225.0	 130.0	 0.0	 0.0	 0.0	 0.0	 0.0	 0.0	 0.0	 0.0	 0.0	 0.0	 0.0;
	57	 130.0	 -20.0	 120.0	 -20.0	 1.03336	 255.0	 1	 225.0	 130.0	 0.0	 0.0	 0.0	 0.0	 0.0	 0.0	 0.0	 0.0	 0.0	 0.0	 0.0;
	58	 0.0	 0.0	 120.0	 -20.0	 1.03337	 255.0	 0	 225.0	 130.0	 0.0	 0.0	 0.0	 0.0	 0.0	 0.0	 0.0	 0.0	 0.0	 0.0	 0.0;
	58	 130.0	 -20.0	 120.0	 -20.0	 1.03337	 255.0	 1	 225.0	 130.0	 0.0	 0.0	 0.0	 0.0	 0.0	 0.0	 0.0	 0.0	 0.0	 0.0	 0.0;
	58	 0.0	 0.0	 120.0	 -20.0	 1.03337	 255.0	 0	 225.0	 130.0	 0.0	 0.0	 0.0	 0.0	 0.0	 0.0	 0.0	 0.0	 0.0	 0.0	 0.0;
	59	 63.0	 0.0	 28.8	 0.0	 1.08415	 69.3	 1	 63.0	 63.0	 0.0	 0.0	 0.0	 0.0	 0.0	 0.0	 0.0	 0.0	 0.0	 0.0	 0.0;
	78	 140.0	 5.0	 105.0	 5.0	 1.09091	 248.3	 1	 225.0	 140.0	 0.0	 0.0	 0.0	 0.0	 0.0	 0.0	 0.0	 0.0	 0.0	 0.0	 0.0;
	78	 140.0	 50.0711	 105.0	 5.0	 1.09091	 248.3	 1	 225.0	 140.0	 0.0	 0.0	 0.0	 0.0	 0.0	 0.0	 0.0	 0.0	 0.0	 0.0	 0.0;
	79	 0.0	 0.0	 105.0	 5.0	 1.09034	 243.8	 0	 220.0	 140.0	 0.0	 0.0	 0.0	 0.0	 0.0	 0.0	 0.0	 0.0	 0.0	 0.0	 0.0;
	79	 0.0	 0.0	 105.0	 5.0	 1.09034	 248.3	 0	 225.0	 140.0	 0.0	 0.0	 0.0	 0.0	 0.0	 0.0	 0.0	 0.0	 0.0	 0.0	 0.0;
	79	 140.0	 5.0	 105.0	 5.0	 1.09034	 248.3	 1	 225.0	 140.0	 0.0	 0.0	 0.0	 0.0	 0.0	 0.0	 0.0	 0.0	 0.0	 0.0	 0.0;
	82	 380.0	 -37.0	 192.0	 -37.0	 1.02993	 425.8	 1	 380.0	 220.0	 0.0	 0.0	 0.0	 0.0	 0.0	 0.0	 0.0	 0.0	 0.0	 0.0	 0.0;
	82	 370.0	 -27.698	 174.0	 -27.698	 1.02993	 408.9	 1	 370.0	 220.0	 0.0	 0.0	 0.0	 0.0	 0.0	 0.0	 0.0	 0.0	 0.0	 0.0	 0.0;
	104	 190.653	 24.9606	 113.0	 -48.0	 1.09091	 251.8	 1	 225.0	 120.0	 0.0	 0.0	 0.0	 0.0	 0.0	 0.0	 0.0	 0.0	 0.0	 0.0	 0.0;
	105	 0.0	 0.0	 113.0	 -48.0	 1.09091	 251.8	 0	 225.0	 134.0	 0.0	 0.0	 0.0	 0.0	 0.0	 0.0	 0.0	 0.0	 0.0	 0.0	 0.0;
	106	 79.0	 38.0238	 90.0	 -5.0	 1.09091	 150.0	 1	 120.0	 79.0	 0.0	 0.0	 0.0	 0.0	 0.0	 0.0	 0.0	 0.0	 0.0	 0.0	 0.0;
	107	 79.0	 -5.0	 90.0	 -5.0	 1.09091	 150.0	 1	 120.0	 79.0	 0.0	 0.0	 0.0	 0.0	 0.0	 0.0	 0.0	 0.0	 0.0	 0.0	 0.0;
	116	 0.0	 0.0	 90.0	 -20.0	 1.09042	 150.0	 0	 120.0	 90.0	 0.0	 0.0	 0.0	 0.0	 0.0	 0.0	 0.0	 0.0	 0.0	 0.0	 0.0;
	117	 70.0	 -20.0	 90.0	 -20.0	 1.09046	 150.0	 1	 120.0	 70.0	 0.0	 0.0	 0.0	 0.0	 0.0	 0.0	 0.0	 0.0	 0.0	 0.0	 0.0;
	118	 80.0	 33.0	 68.0	 33.0	 1.089	 129.3	 1	 110.0	 80.0	 0.0	 0.0	 0.0	 0.0	 0.0	 0.0	 0.0	 0.0	 0.0	 0.0	 0.0;
	125	 215.0	 52.0648	 113.0	 -11.0	 1.09091	 242.9	 1	 215.0	 160.0	 0.0	 0.0	 0.0	 0.0	 0.0	 0.0	 0.0	 0.0	 0.0	 0.0	 0.0;
	126	 225.0	 84.0	 84.0	 -5.0	 1.09082	 240.2	 1	 225.0	 140.0	 0.0	 0.0	 0.0	 0.0	 0.0	 0.0	 0.0	 0.0	 0.0	 0.0	 0.0;
	126	 0.0	 0.0	 80.0	 -5.0	 1.09082	 229.4	 0	 215.0	 160.0	 0.0	 0.0	 0.0	 0.0	 0.0	 0.0	 0.0	 0.0	 0.0	 0.0	 0.0;
	127	 225.0	 -7.5	 79.0	 -7.5	 1.02869	 238.5	 1	 225.0	 140.0	 0.0	 0.0	 0.0	 0.0	 0.0	 0.0	 0.0	 0.0	 0.0	 0.0	 0.0;
	127	 220.0	 -10.0	 100.0	 -10.0	 1.02869	 241.7	 1	 220.0	 160.0	 0.0	 0.0	 0.0	 0.0	 0.0	 0.0	 0.0	 0.0	 0.0	 0.0	 0.0;
	132	 0.0	 0.0	 0.0	 0.0	 1.09091	 0.0	 0	 0.0	 0.0	 0.0	 0.0	 0.0	 0.0	 0.0	 0.0	 0.0	 0.0	 0.0	 0.0	 0.0;
	132	 0.0	 0.0	 0.0	 0.0	 1.09091	 0.0	 0	 0.0	 0.0	 0.0	 0.0	 0.0	 0.0	 0.0	 0.0	 0.0	 0.0	 0.0	 0.0	 0.0;
	133	 0.0	 0.0	 0.0	 0.0	 1.09091	 0.0	 0	 0.0	 0.0	 0.0	 0.0	 0.0	 0.0	 0.0	 0.0	 0.0	 0.0	 0.0	 0.0	 0.0;
	133	 0.0	 0.0	 0.0	 0.0	 1.09091	 0.0	 0	 0.0	 0.0	 0.0	 0.0	 0.0	 0.0	 0.0	 0.0	 0.0	 0.0	 0.0	 0.0	 0.0;
	134	 0.0	 0.0	 90.0	 0.0	 1.08882	 150.0	 0	 120.0	 102.0	 0.0	 0.0	 0.0	 0.0	 0.0	 0.0	 0.0	 0.0	 0.0	 0.0	 0.0;
	134	 120.0	 60.3687	 90.001	 0.0	 1.08882	 150.0	 1	 120.0	 100.0	 0.0	 0.0	 0.0	 0.0	 0.0	 0.0	 0.0	 0.0	 0.0	 0.0	 0.0;
	135	 0.0	 0.0	 90.0	 0.0	 1.08867	 150.0	 0	 120.0	 102.0	 0.0	 0.0	 0.0	 0.0	 0.0	 0.0	 0.0	 0.0	 0.0	 0.0	 0.0;
	146	 50.0	 -0.001	 12.0	 -0.001	 1.09012	 51.4	 1	 50.0	 30.0	 0.0	 0.0	 0.0	 0.0	 0.0	 0.0	 0.0	 0.0	 0.0	 0.0	 0.0;
	146	 34.2659	 -0.001	 12.0	 -0.001	 1.09012	 51.4	 1	 50.0	 30.0	 0.0	 0.0	 0.0	 0.0	 0.0	 0.0	 0.0	 0.0	 0.0	 0.0	 0.0;
	147	 0.0	 0.0	 90.0	 0.0	 1.09011	 150.0	 0	 120.0	 90.0	 0.0	 0.0	 0.0	 0.0	 0.0	 0.0	 0.0	 0.0	 0.0	 0.0	 0.0;
	148	 90.0	 0.0	 120.0	 0.0	 1.09091	 252.4	 1	 222.0	 90.0	 0.0	 0.0	 0.0	 0.0	 0.0	 0.0	 0.0	 0.0	 0.0	 0.0	 0.0;
	148	 0.0	 0.0	 120.0	 0.0	 1.09091	 237.5	 0	 205.0	 135.0	 0.0	 0.0	 0.0	 0.0	 0.0	 0.0	 0.0	 0.0	 0.0	 0.0	 0.0;
	148	 0.0	 0.0	 120.0	 0.0	 1.09091	 237.5	 0	 205.0	 135.0	 0.0	 0.0	 0.0	 0.0	 0.0	 0.0	 0.0	 0.0	 0.0	 0.0	 0.0;
	148	 90.0	 0.0	 120.0	 0.0	 1.09091	 252.4	 1	 222.0	 90.0	 0.0	 0.0	 0.0	 0.0	 0.0	 0.0	 0.0	 0.0	 0.0	 0.0	 0.0;
	150	 90.0	 0.0	 120.0	 0.0	 1.03246	 252.4	 1	 222.0	 90.0	 0.0	 0.0	 0.0	 0.0	 0.0	 0.0	 0.0	 0.0	 0.0	 0.0	 0.0;
	151	 90.0	 0.0	 120.0	 0.0	 1.0325	 252.4	 1	 222.0	 90.0	 0.0	 0.0	 0.0	 0.0	 0.0	 0.0	 0.0	 0.0	 0.0	 0.0	 0.0;
	151	 0.0	 0.0	 120.0	 0.0	 1.0325	 252.4	 0	 222.0	 90.0	 0.0	 0.0	 0.0	 0.0	 0.0	 0.0	 0.0	 0.0	 0.0	 0.0	 0.0;
	155	 94.0	 24.7759	 120.0	 0.0	 1.09091	 263.9	 1	 235.0	 94.0	 0.0	 0.0	 0.0	 0.0	 0.0	 0.0	 0.0	 0.0	 0.0	 0.0	 0.0;
	155	 94.0	 24.7759	 120.0	 0.0	 1.09091	 263.9	 1	 235.0	 94.0	 0.0	 0.0	 0.0	 0.0	 0.0	 0.0	 0.0	 0.0	 0.0	 0.0	 0.0;
	155	 0.0	 0.0	 120.0	 0.0	 1.09091	 237.5	 0	 205.0	 130.0	 0.0	 0.0	 0.0	 0.0	 0.0	 0.0	 0.0	 0.0	 0.0	 0.0	 0.0;
	155	 104.0	 0.0	 120.0	 0.0	 1.09091	 287.3	 1	 261.0	 104.0	 0.0	 0.0	 0.0	 0.0	 0.0	 0.0	 0.0	 0.0	 0.0	 0.0	 0.0;
	156	 0.0	 0.0	 120.0	 0.0	 1.09091	 237.5	 0	 205.0	 130.0	 0.0	 0.0	 0.0	 0.0	 0.0	 0.0	 0.0	 0.0	 0.0	 0.0	 0.0;
	156	 130.0	 0.0	 120.0	 0.0	 1.09091	 237.5	 1	 205.0	 130.0	 0.0	 0.0	 0.0	 0.0	 0.0	 0.0	 0.0	 0.0	 0.0	 0.0	 0.0;
	156	 120.0	 48.0433	 120.0	 0.0	 1.09091	 238.4	 1	 206.0	 120.0	 0.0	 0.0	 0.0	 0.0	 0.0	 0.0	 0.0	 0.0	 0.0	 0.0	 0.0;
	156	 120.0	 0.0	 120.0	 0.0	 1.09091	 238.4	 1	 206.0	 120.0	 0.0	 0.0	 0.0	 0.0	 0.0	 0.0	 0.0	 0.0	 0.0	 0.0	 0.0;
	159	 120.0	 0.0	 120.0	 0.0	 1.00535	 238.4	 1	 206.0	 120.0	 0.0	 0.0	 0.0	 0.0	 0.0	 0.0	 0.0	 0.0	 0.0	 0.0	 0.0;
	165	 200.0	 64.1328	 120.0	 0.0	 1.09084	 233.2	 1	 200.0	 150.0	 0.0	 0.0	 0.0	 0.0	 0.0	 0.0	 0.0	 0.0	 0.0	 0.0	 0.0;
	165	 0.0	 0.0	 120.0	 0.0	 1.09084	 233.2	 0	 200.0	 150.0	 0.0	 0.0	 0.0	 0.0	 0.0	 0.0	 0.0	 0.0	 0.0	 0.0	 0.0;
	166	 200.0	 0.0	 120.0	 0.0	 1.09091	 233.2	 1	 200.0	 150.0	 0.0	 0.0	 0.0	 0.0	 0.0	 0.0	 0.0	 0.0	 0.0	 0.0	 0.0;
	165	 0.0	 0.0	 120.0	 0.0	 1.09084	 233.2	 0	 200.0	 150.0	 0.0	 0.0	 0.0	 0.0	 0.0	 0.0	 0.0	 0.0	 0.0	 0.0	 0.0;
	205	 0.0	 73.1915	 80.0	 -30.0	 1.0325	 196.1	 1	 0.0	 0.0	 0.0	 0.0	 0.0	 0.0	 0.0	 0.0	 0.0	 0.0	 0.0	 0.0	 0.0;
	205	 0.0	 -30.0	 80.0	 -30.0	 1.0325	 196.1	 1	 0.0	 0.0	 0.0	 0.0	 0.0	 0.0	 0.0	 0.0	 0.0	 0.0	 0.0	 0.0	 0.0;
	205	 0.0	 -30.0	 80.0	 -30.0	 1.0325	 196.1	 1	 0.0	 0.0	 0.0	 0.0	 0.0	 0.0	 0.0	 0.0	 0.0	 0.0	 0.0	 0.0	 0.0;
	206	 0.0	 -30.0	 80.0	 -30.0	 1.0325	 196.1	 1	 0.0	 0.0	 0.0	 0.0	 0.0	 0.0	 0.0	 0.0	 0.0	 0.0	 0.0	 0.0	 0.0;
	215	 37.079	 0.0	 20.0	 0.0	 1.08646	 58.5	 1	 37.079	 37.079	 0.0	 0.0	 0.0	 0.0	 0.0	 0.0	 0.0	 0.0	 0.0	 0.0	 0.0;
	215	 33.708	 0.0	 20.0	 0.0	 1.08646	 53.9	 1	 33.708	 33.708	 0.0	 0.0	 0.0	 0.0	 0.0	 0.0	 0.0	 0.0	 0.0	 0.0	 0.0;
	215	 33.708	 0.0	 20.0	 0.0	 1.08646	 53.9	 1	 33.708	 33.708	 0.0	 0.0	 0.0	 0.0	 0.0	 0.0	 0.0	 0.0	 0.0	 0.0	 0.0;
	215	 15.506	 0.0	 20.0	 0.0	 1.08646	 30.5	 1	 15.506	 15.506	 0.0	 0.0	 0.0	 0.0	 0.0	 0.0	 0.0	 0.0	 0.0	 0.0	 0.0;
	229	 5.5	 1.5	 1.5	 0.0	 1.06367	 7.3	 1	 5.5	 5.5	 0.0	 0.0	 0.0	 0.0	 0.0	 0.0	 0.0	 0.0	 0.0	 0.0	 0.0;
	230	 5.5	 7.0	 7.0	 0.0	 1.06392	 10.0	 1	 5.5	 5.5	 0.0	 0.0	 0.0	 0.0	 0.0	 0.0	 0.0	 0.0	 0.0	 0.0	 0.0;
	239	 3.0	 8.0	 8.0	 0.0	 1.03337	 15.4	 1	 3.0	 3.0	 0.0	 0.0	 0.0	 0.0	 0.0	 0.0	 0.0	 0.0	 0.0	 0.0	 0.0;
	246	 370.0	 135.153	 220.0	 -14.0	 1.03502	 430.5	 1	 370.0	 290.0	 0.0	 0.0	 0.0	 0.0	 0.0	 0.0	 0.0	 0.0	 0.0	 0.0	 0.0;
	291	 2.0	 1.18695	 2.0	 0.0	 1.06439	 3.2	 1	 2.0	 2.0	 0.0	 0.0	 0.0	 0.0	 0.0	 0.0	 0.0	 0.0	 0.0	 0.0	 0.0;
	294	 2.0	 2.0	 2.0	 0.0	 1.05278	 4.8	 1	 2.0	 2.0	 0.0	 0.0	 0.0	 0.0	 0.0	 0.0	 0.0	 0.0	 0.0	 0.0	 0.0;
	306	 9.167	 7.0	 7.0	 0.0	 1.05332	 24.0	 1	 9.167	 9.167	 0.0	 0.0	 0.0	 0.0	 0.0	 0.0	 0.0	 0.0	 0.0	 0.0	 0.0;
	306	 16.296	 7.0	 7.0	 0.0	 1.05332	 27.9	 1	 16.296	 16.296	 0.0	 0.0	 0.0	 0.0	 0.0	 0.0	 0.0	 0.0	 0.0	 0.0	 0.0;
	306	 11.204	 7.617	 7.617	 6.0	 1.05332	 31.0	 1	 11.204	 11.204	 0.0	 0.0	 0.0	 0.0	 0.0	 0.0	 0.0	 0.0	 0.0	 0.0	 0.0;
	306	 9.167	 7.0	 7.0	 0.0	 1.05332	 26.9	 1	 9.167	 9.167	 0.0	 0.0	 0.0	 0.0	 0.0	 0.0	 0.0	 0.0	 0.0	 0.0	 0.0;
	306	 9.167	 7.929	 7.929	 0.0	 1.05332	 28.1	 1	 9.167	 9.167	 0.0	 0.0	 0.0	 0.0	 0.0	 0.0	 0.0	 0.0	 0.0	 0.0	 0.0;
	307	 36.5	 15.0	 15.0	 0.0	 1.05854	 57.0	 1	 36.5	 36.5	 0.0	 0.0	 0.0	 0.0	 0.0	 0.0	 0.0	 0.0	 0.0	 0.0	 0.0;
	307	 36.5	 15.0	 15.0	 0.0	 1.05854	 57.0	 1	 36.5	 36.5	 0.0	 0.0	 0.0	 0.0	 0.0	 0.0	 0.0	 0.0	 0.0	 0.0	 0.0;
	308	 32.0	 15.0	 15.0	 0.0	 1.067	 36.7	 1	 32.0	 32.0	 0.0	 0.0	 0.0	 0.0	 0.0	 0.0	 0.0	 0.0	 0.0	 0.0	 0.0;
	308	 40.0	 13.385	 16.829	 0.0	 1.067	 57.5	 1	 40.0	 40.0	 0.0	 0.0	 0.0	 0.0	 0.0	 0.0	 0.0	 0.0	 0.0	 0.0	 0.0;
	310	 35.0	 20.0	 20.0	 0.0	 1.07303	 53.9	 1	 35.0	 35.0	 0.0	 0.0	 0.0	 0.0	 0.0	 0.0	 0.0	 0.0	 0.0	 0.0	 0.0;
	310	 75.0	 25.599	 25.599	 0.0	 1.07303	 103.2	 1	 75.0	 75.0	 0.0	 0.0	 0.0	 0.0	 0.0	 0.0	 0.0	 0.0	 0.0	 0.0	 0.0;
	311	 45.0	 36.9252	 40.0	 0.0	 1.06272	 64.0	 1	 45.0	 45.0	 0.0	 0.0	 0.0	 0.0	 0.0	 0.0	 0.0	 0.0	 0.0	 0.0	 0.0;
	319	 2.0	 3.0	 3.0	 0.0	 1.07001	 4.1	 1	 2.0	 2.0	 0.0	 0.0	 0.0	 0.0	 0.0	 0.0	 0.0	 0.0	 0.0	 0.0	 0.0;
	345	 1.0	 1.0	 1.0	 0.0	 1.04796	 1.9	 1	 1.0	 1.0	 0.0	 0.0	 0.0	 0.0	 0.0	 0.0	 0.0	 0.0	 0.0	 0.0	 0.0;
	362	 40.0	 12.0	 12.0	 0.0	 1.08888	 47.8	 1	 40.0	 40.0	 0.0	 0.0	 0.0	 0.0	 0.0	 0.0	 0.0	 0.0	 0.0	 0.0	 0.0;
	363	 40.0	 12.0	 12.0	 0.0	 1.06039	 47.8	 1	 40.0	 40.0	 0.0	 0.0	 0.0	 0.0	 0.0	 0.0	 0.0	 0.0	 0.0	 0.0	 0.0;
	364	 0.0	 0.0	 12.0	 0.0	 1.1049	 47.8	 0	 0.0	 0.0	 0.0	 0.0	 0.0	 0.0	 0.0	 0.0	 0.0	 0.0	 0.0	 0.0	 0.0;
	364	 46.0	 12.0	 12.0	 0.0	 1.1049	 71.0	 1	 46.0	 46.0	 0.0	 0.0	 0.0	 0.0	 0.0	 0.0	 0.0	 0.0	 0.0	 0.0	 0.0;
	365	 40.0	 12.0	 12.0	 0.0	 1.06981	 47.8	 1	 40.0	 40.0	 0.0	 0.0	 0.0	 0.0	 0.0	 0.0	 0.0	 0.0	 0.0	 0.0	 0.0;
	365	 40.0	 12.0	 12.0	 0.0	 1.06981	 47.8	 1	 40.0	 40.0	 0.0	 0.0	 0.0	 0.0	 0.0	 0.0	 0.0	 0.0	 0.0	 0.0	 0.0;
	368	 1.0	 1.0	 1.0	 0.0	 1.07107	 1.9	 1	 1.0	 1.0	 0.0	 0.0	 0.0	 0.0	 0.0	 0.0	 0.0	 0.0	 0.0	 0.0	 0.0;
	382	 15.0	 10.0	 10.0	 0.0	 1.08182	 55.9	 1	 55.0	 15.0	 0.0	 0.0	 0.0	 0.0	 0.0	 0.0	 0.0	 0.0	 0.0	 0.0	 0.0;
	382	 120.0	 39.2284	 120.0	 -10.0	 1.08182	 255.9	 1	 226.0	 120.0	 0.0	 0.0	 0.0	 0.0	 0.0	 0.0	 0.0	 0.0	 0.0	 0.0	 0.0;
	383	 15.0	 0.0	 10.0	 0.0	 1.10054	 55.9	 1	 55.0	 15.0	 0.0	 0.0	 0.0	 0.0	 0.0	 0.0	 0.0	 0.0	 0.0	 0.0	 0.0;
	386	 2.5	 2.0	 2.0	 0.0	 1.05805	 4.8	 1	 2.5	 2.5	 0.0	 0.0	 0.0	 0.0	 0.0	 0.0	 0.0	 0.0	 0.0	 0.0	 0.0;
	395	 1.0	 1.0	 1.0	 0.0	 1.06558	 1.9	 1	 1.0	 1.0	 0.0	 0.0	 0.0	 0.0	 0.0	 0.0	 0.0	 0.0	 0.0	 0.0	 0.0;
	421	 4.0	 4.0	 4.0	 0.0	 1.04857	 7.7	 1	 4.0	 4.0	 0.0	 0.0	 0.0	 0.0	 0.0	 0.0	 0.0	 0.0	 0.0	 0.0	 0.0;
	426	 3.0	 3.0	 3.0	 0.0	 1.07431	 4.5	 1	 3.0	 3.0	 0.0	 0.0	 0.0	 0.0	 0.0	 0.0	 0.0	 0.0	 0.0	 0.0	 0.0;
	431	 5.0	 8.0	 8.0	 0.0	 1.08943	 13.6	 1	 5.0	 5.0	 0.0	 0.0	 0.0	 0.0	 0.0	 0.0	 0.0	 0.0	 0.0	 0.0	 0.0;
	440	 2.0	 2.0	 2.0	 0.0	 1.0288	 3.6	 1	 2.0	 2.0	 0.0	 0.0	 0.0	 0.0	 0.0	 0.0	 0.0	 0.0	 0.0	 0.0	 0.0;
	447	 3.5	 0.0	 20.0	 0.0	 1.0498	 21.3	 1	 3.5	 3.5	 0.0	 0.0	 0.0	 0.0	 0.0	 0.0	 0.0	 0.0	 0.0	 0.0	 0.0;
	447	 3.5	 0.0	 20.0	 0.0	 1.0498	 21.3	 1	 3.5	 3.5	 0.0	 0.0	 0.0	 0.0	 0.0	 0.0	 0.0	 0.0	 0.0	 0.0	 0.0;
	463	 0.0	 0.0	 2.0	 0.0	 1.0465	 4.0	 1	 0.0	 0.0	 0.0	 0.0	 0.0	 0.0	 0.0	 0.0	 0.0	 0.0	 0.0	 0.0	 0.0;
	482	 1.4	 0.7	 0.7	 0.0	 1.02656	 1.7	 1	 1.4	 1.4	 0.0	 0.0	 0.0	 0.0	 0.0	 0.0	 0.0	 0.0	 0.0	 0.0	 0.0;
	490	 3.0	 3.0	 3.0	 0.0	 1.05535	 5.3	 1	 3.0	 3.0	 0.0	 0.0	 0.0	 0.0	 0.0	 0.0	 0.0	 0.0	 0.0	 0.0	 0.0;
	522	 0.0	 0.0	 1.0	 0.0	 1.06929	 1.9	 1	 0.0	 0.0	 0.0	 0.0	 0.0	 0.0	 0.0	 0.0	 0.0	 0.0	 0.0	 0.0	 0.0;
	533	 0.5	 1.0	 1.0	 0.0	 1.07198	 1.9	 1	 0.5	 0.5	 0.0	 0.0	 0.0	 0.0	 0.0	 0.0	 0.0	 0.0	 0.0	 0.0	 0.0;
	534	 35.89	 14.0	 14.0	 0.0	 1.06429	 53.9	 1	 35.89	 35.89	 0.0	 0.0	 0.0	 0.0	 0.0	 0.0	 0.0	 0.0	 0.0	 0.0	 0.0;
	534	 22.086	 9.23653	 14.0	 0.0	 1.06429	 34.9	 1	 22.086	 22.086	 0.0	 0.0	 0.0	 0.0	 0.0	 0.0	 0.0	 0.0	 0.0	 0.0	 0.0;
	534	 22.086	 9.23653	 14.0	 0.0	 1.06429	 34.9	 1	 22.086	 22.086	 0.0	 0.0	 0.0	 0.0	 0.0	 0.0	 0.0	 0.0	 0.0	 0.0	 0.0;
	534	 72.469	 11.4277	 14.0	 0.0	 1.06429	 105.9	 1	 72.469	 72.469	 0.0	 0.0	 0.0	 0.0	 0.0	 0.0	 0.0	 0.0	 0.0	 0.0	 0.0;
	534	 72.469	 11.4277	 14.0	 0.0	 1.06429	 105.9	 1	 72.469	 72.469	 0.0	 0.0	 0.0	 0.0	 0.0	 0.0	 0.0	 0.0	 0.0	 0.0	 0.0;
	535	 24.573	 14.7746	 17.5	 0.0	 1.05783	 36.5	 1	 24.573	 24.573	 0.0	 0.0	 0.0	 0.0	 0.0	 0.0	 0.0	 0.0	 0.0	 0.0	 0.0;
	535	 23.805	 14.8864	 17.5	 0.0	 1.05783	 35.6	 1	 23.805	 23.805	 0.0	 0.0	 0.0	 0.0	 0.0	 0.0	 0.0	 0.0	 0.0	 0.0	 0.0;
	535	 95.99	 15.7424	 17.5	 0.0	 1.05783	 126.2	 1	 95.99	 95.99	 0.0	 0.0	 0.0	 0.0	 0.0	 0.0	 0.0	 0.0	 0.0	 0.0	 0.0;
	535	 80.631	 8.02398	 17.5	 0.0	 1.05783	 106.4	 1	 80.631	 80.631	 0.0	 0.0	 0.0	 0.0	 0.0	 0.0	 0.0	 0.0	 0.0	 0.0	 0.0;
	549	 1.0	 0.7	 0.7	 0.0	 1.0394	 1.7	 1	 1.0	 1.0	 0.0	 0.0	 0.0	 0.0	 0.0	 0.0	 0.0	 0.0	 0.0	 0.0	 0.0;
	557	 25.724	 5.051	 5.051	 0.0	 1.04037	 34.4	 1	 25.724	 25.724	 0.0	 0.0	 0.0	 0.0	 0.0	 0.0	 0.0	 0.0	 0.0	 0.0	 0.0;
	557	 21.184	 5.051	 5.051	 0.0	 1.04037	 28.5	 1	 21.184	 21.184	 0.0	 0.0	 0.0	 0.0	 0.0	 0.0	 0.0	 0.0	 0.0	 0.0	 0.0;
	557	 19.671	 5.0	 5.0	 0.0	 1.04037	 26.5	 1	 19.671	 19.671	 0.0	 0.0	 0.0	 0.0	 0.0	 0.0	 0.0	 0.0	 0.0	 0.0	 0.0;
	557	 22.697	 5.051	 5.051	 0.0	 1.04037	 30.4	 1	 22.697	 22.697	 0.0	 0.0	 0.0	 0.0	 0.0	 0.0	 0.0	 0.0	 0.0	 0.0	 0.0;
	557	 25.724	 5.051	 5.051	 0.0	 1.04037	 34.4	 1	 25.724	 25.724	 0.0	 0.0	 0.0	 0.0	 0.0	 0.0	 0.0	 0.0	 0.0	 0.0	 0.0;
	558	 31.032	 5.064	 5.064	 0.0	 1.03685	 34.4	 1	 31.032	 31.032	 0.0	 0.0	 0.0	 0.0	 0.0	 0.0	 0.0	 0.0	 0.0	 0.0	 0.0;
	558	 31.032	 5.064	 5.064	 0.0	 1.03685	 34.4	 1	 31.032	 31.032	 0.0	 0.0	 0.0	 0.0	 0.0	 0.0	 0.0	 0.0	 0.0	 0.0	 0.0;
	558	 22.817	 5.0	 5.0	 0.0	 1.03685	 26.5	 1	 22.817	 22.817	 0.0	 0.0	 0.0	 0.0	 0.0	 0.0	 0.0	 0.0	 0.0	 0.0	 0.0;
	558	 30.119	 5.064	 5.064	 0.0	 1.03685	 34.4	 1	 30.119	 30.119	 0.0	 0.0	 0.0	 0.0	 0.0	 0.0	 0.0	 0.0	 0.0	 0.0	 0.0;
	581	 3.0	 3.0	 3.0	 0.0	 1.0494	 5.3	 1	 3.0	 3.0	 0.0	 0.0	 0.0	 0.0	 0.0	 0.0	 0.0	 0.0	 0.0	 0.0	 0.0;
	594	 2.07	 0.0	 1.08	 0.0	 1.06495	 4.4	 1	 2.07	 2.07	 0.0	 0.0	 0.0	 0.0	 0.0	 0.0	 0.0	 0.0	 0.0	 0.0	 0.0;
	601	 4.05	 0.0	 1.8	 0.0	 1.06191	 4.4	 1	 4.05	 4.05	 0.0	 0.0	 0.0	 0.0	 0.0	 0.0	 0.0	 0.0	 0.0	 0.0	 0.0;
	622	 110.0	 -0.001	 30.0	 -0.001	 1.0778	 114.0	 1	 110.0	 110.0	 0.0	 0.0	 0.0	 0.0	 0.0	 0.0	 0.0	 0.0	 0.0	 0.0	 0.0;
	622	 0.0	 0.0	 30.0	 0.0	 1.0778	 65.3	 0	 0.0	 0.0	 0.0	 0.0	 0.0	 0.0	 0.0	 0.0	 0.0	 0.0	 0.0	 0.0	 0.0;
	626	 2.25	 0.0	 0.9	 0.0	 1.07287	 2.4	 1	 2.25	 2.25	 0.0	 0.0	 0.0	 0.0	 0.0	 0.0	 0.0	 0.0	 0.0	 0.0	 0.0;
	630	 4.5	 0.0	 2.52	 0.0	 1.06945	 5.2	 1	 4.5	 4.5	 0.0	 0.0	 0.0	 0.0	 0.0	 0.0	 0.0	 0.0	 0.0	 0.0	 0.0;
	631	 5.4	 0.0	 2.52	 0.0	 1.06942	 6.0	 1	 5.4	 5.4	 0.0	 0.0	 0.0	 0.0	 0.0	 0.0	 0.0	 0.0	 0.0	 0.0	 0.0;
	655	 0.81	 0.0	 0.36	 0.0	 1.03169	 0.9	 1	 0.81	 0.81	 0.0	 0.0	 0.0	 0.0	 0.0	 0.0	 0.0	 0.0	 0.0	 0.0	 0.0;
	660	 135.0	 31.0861	 120.0	 -20.0	 1.08206	 255.0	 1	 225.0	 135.0	 0.0	 0.0	 0.0	 0.0	 0.0	 0.0	 0.0	 0.0	 0.0	 0.0	 0.0;
	661	 135.0	 -20.0	 120.0	 -20.0	 1.08182	 255.0	 1	 225.0	 135.0	 0.0	 0.0	 0.0	 0.0	 0.0	 0.0	 0.0	 0.0	 0.0	 0.0	 0.0;
	667	 1.89	 0.0	 0.72	 0.0	 1.03727	 2.0	 1	 1.89	 1.89	 0.0	 0.0	 0.0	 0.0	 0.0	 0.0	 0.0	 0.0	 0.0	 0.0	 0.0;
	671	 7.65	 0.0	 2.7	 0.0	 1.06812	 8.6	 1	 7.65	 7.65	 0.0	 0.0	 0.0	 0.0	 0.0	 0.0	 0.0	 0.0	 0.0	 0.0	 0.0;
	673	 2.7	 0.0	 0.9	 0.0	 1.06495	 4.4	 1	 2.7	 2.7	 0.0	 0.0	 0.0	 0.0	 0.0	 0.0	 0.0	 0.0	 0.0	 0.0	 0.0;
	681	 190.0	 0.0	 30.0	 0.0	 1.08024	 192.4	 1	 190.0	 190.0	 0.0	 0.0	 0.0	 0.0	 0.0	 0.0	 0.0	 0.0	 0.0	 0.0	 0.0;
	681	 24.998	 0.0	 30.0	 0.0	 1.08024	 77.5	 1	 24.998	 24.998	 0.0	 0.0	 0.0	 0.0	 0.0	 0.0	 0.0	 0.0	 0.0	 0.0	 0.0;
	687	 9.0	 0.0	 4.5	 0.0	 1.07512	 10.1	 1	 9.0	 9.0	 0.0	 0.0	 0.0	 0.0	 0.0	 0.0	 0.0	 0.0	 0.0	 0.0	 0.0;
	699	 5.4	 0.0	 2.7	 0.0	 1.0746	 6.0	 1	 5.4	 5.4	 0.0	 0.0	 0.0	 0.0	 0.0	 0.0	 0.0	 0.0	 0.0	 0.0	 0.0;
	702	 0.9	 0.0	 0.9	 0.0	 1.0721	 1.3	 1	 0.9	 0.9	 0.0	 0.0	 0.0	 0.0	 0.0	 0.0	 0.0	 0.0	 0.0	 0.0	 0.0;
	712	 9.0	 0.0	 2.0	 0.0	 1.07103	 9.2	 1	 9.0	 9.0	 0.0	 0.0	 0.0	 0.0	 0.0	 0.0	 0.0	 0.0	 0.0	 0.0	 0.0;
	718	 1.44	 0.0	 0.36	 0.0	 1.03111	 1.5	 1	 1.44	 1.44	 0.0	 0.0	 0.0	 0.0	 0.0	 0.0	 0.0	 0.0	 0.0	 0.0	 0.0;
	722	 2.25	 0.0	 0.9	 0.0	 1.06069	 2.4	 1	 2.25	 2.25	 0.0	 0.0	 0.0	 0.0	 0.0	 0.0	 0.0	 0.0	 0.0	 0.0	 0.0;
	731	 1.35	 0.0	 0.45	 0.0	 1.06199	 4.3	 1	 1.35	 1.35	 0.0	 0.0	 0.0	 0.0	 0.0	 0.0	 0.0	 0.0	 0.0	 0.0	 0.0;
	736	 130.0	 -20.0	 120.0	 -20.0	 1.08182	 255.0	 1	 225.0	 130.0	 0.0	 0.0	 0.0	 0.0	 0.0	 0.0	 0.0	 0.0	 0.0	 0.0	 0.0;
	740	 1.8	 0.0	 0.0	 0.0	 1.06599	 4.3	 1	 1.8	 1.8	 0.0	 0.0	 0.0	 0.0	 0.0	 0.0	 0.0	 0.0	 0.0	 0.0	 0.0;
	747	 4.68	 0.0	 2.7	 0.0	 1.04853	 5.4	 1	 4.68	 4.68	 0.0	 0.0	 0.0	 0.0	 0.0	 0.0	 0.0	 0.0	 0.0	 0.0	 0.0;
	759	 90.0	 0.0	 30.0	 0.0	 1.0699	 105.2	 1	 90.0	 90.0	 0.0	 0.0	 0.0	 0.0	 0.0	 0.0	 0.0	 0.0	 0.0	 0.0	 0.0;
	760	 0.0	 0.0	 0.0	 0.0	 1.06824	 1.3	 0	 0.0	 0.0	 0.0	 0.0	 0.0	 0.0	 0.0	 0.0	 0.0	 0.0	 0.0	 0.0	 0.0;
	778	 9.0	 0.0	 30.0	 0.0	 1.05918	 31.3	 1	 9.0	 9.0	 0.0	 0.0	 0.0	 0.0	 0.0	 0.0	 0.0	 0.0	 0.0	 0.0	 0.0;
	780	 1.26	 0.0	 0.63	 0.0	 1.07776	 1.4	 1	 1.26	 1.26	 0.0	 0.0	 0.0	 0.0	 0.0	 0.0	 0.0	 0.0	 0.0	 0.0	 0.0;
	783	 6.0	 0.0	 3.0	 0.0	 1.07336	 6.7	 1	 6.0	 6.0	 0.0	 0.0	 0.0	 0.0	 0.0	 0.0	 0.0	 0.0	 0.0	 0.0	 0.0;
	788	 2.0	 0.0	 1.0	 0.0	 1.04756	 95.9	 1	 2.0	 2.0	 0.0	 0.0	 0.0	 0.0	 0.0	 0.0	 0.0	 0.0	 0.0	 0.0	 0.0;
	792	 0.0	 0.0	 23.0	 0.0	 1.05369	 71.8	 0	 0.0	 0.0	 0.0	 0.0	 0.0	 0.0	 0.0	 0.0	 0.0	 0.0	 0.0	 0.0	 0.0;
	792	 0.0	 0.0	 23.0	 0.0	 1.05369	 71.8	 0	 0.0	 0.0	 0.0	 0.0	 0.0	 0.0	 0.0	 0.0	 0.0	 0.0	 0.0	 0.0	 0.0;
	792	 0.0	 0.0	 11.0	 0.0	 1.05369	 23.7	 0	 0.0	 0.0	 0.0	 0.0	 0.0	 0.0	 0.0	 0.0	 0.0	 0.0	 0.0	 0.0	 0.0;
	792	 0.0	 0.0	 10.0	 0.0	 1.05369	 23.3	 0	 0.0	 0.0	 0.0	 0.0	 0.0	 0.0	 0.0	 0.0	 0.0	 0.0	 0.0	 0.0	 0.0;
	803	 0.0	 0.0	 10.0	 0.0	 1.08195	 55.9	 1	 55.0	 0.0	 0.0	 0.0	 0.0	 0.0	 0.0	 0.0	 0.0	 0.0	 0.0	 0.0	 0.0;
	804	 0.0	 0.0	 10.0	 0.0	 1.07278	 120.4	 1	 120.0	 0.0	 0.0	 0.0	 0.0	 0.0	 0.0	 0.0	 0.0	 0.0	 0.0	 0.0	 0.0;
	809	 0.0	 0.0	 0.0	 0.0	 1.07004	 3.3	 0	 0.0	 0.0	 0.0	 0.0	 0.0	 0.0	 0.0	 0.0	 0.0	 0.0	 0.0	 0.0	 0.0;
	815	 2.7	 0.0	 1.62	 0.0	 1.07164	 3.1	 1	 2.7	 2.7	 0.0	 0.0	 0.0	 0.0	 0.0	 0.0	 0.0	 0.0	 0.0	 0.0	 0.0;
	834	 0.9	 0.0	 0.0	 0.0	 1.05238	 1.5	 1	 0.9	 0.9	 0.0	 0.0	 0.0	 0.0	 0.0	 0.0	 0.0	 0.0	 0.0	 0.0	 0.0;
	840	 25.0	 0.0	 5.592	 0.0	 1.05932	 51.3	 1	 25.0	 25.0	 0.0	 0.0	 0.0	 0.0	 0.0	 0.0	 0.0	 0.0	 0.0	 0.0	 0.0;
	840	 25.0	 0.0	 5.592	 0.0	 1.05932	 51.3	 1	 25.0	 25.0	 0.0	 0.0	 0.0	 0.0	 0.0	 0.0	 0.0	 0.0	 0.0	 0.0	 0.0;
	844	 1.9	 0.311	 0.311	 0.0	 1.07659	 3.5	 1	 1.9	 1.9	 0.0	 0.0	 0.0	 0.0	 0.0	 0.0	 0.0	 0.0	 0.0	 0.0	 0.0;
	848	 3.011	 0.011	 0.011	 0.0	 1.05907	 5.6	 1	 3.011	 3.011	 0.0	 0.0	 0.0	 0.0	 0.0	 0.0	 0.0	 0.0	 0.0	 0.0	 0.0;
	854	 7.0	 0.932	 0.932	 0.0	 1.06201	 14.5	 1	 7.0	 7.0	 0.0	 0.0	 0.0	 0.0	 0.0	 0.0	 0.0	 0.0	 0.0	 0.0	 0.0;
	873	 68.0	 7.82938	 41.2	 0.0	 1.08182	 87.7	 1	 68.0	 68.0	 0.0	 0.0	 0.0	 0.0	 0.0	 0.0	 0.0	 0.0	 0.0	 0.0	 0.0;
	876	 0.0	 0.0	 0.0	 0.0	 1.0397	 1.9	 0	 0.0	 0.0	 0.0	 0.0	 0.0	 0.0	 0.0	 0.0	 0.0	 0.0	 0.0	 0.0	 0.0;
	896	 0.0	 0.0	 45.0	 -10.0	 1.06882	 65.8	 0	 0.0	 0.0	 0.0	 0.0	 0.0	 0.0	 0.0	 0.0	 0.0	 0.0	 0.0	 0.0	 0.0;
	896	 0.0	 0.0	 45.0	 -10.0	 1.06882	 71.1	 0	 0.0	 0.0	 0.0	 0.0	 0.0	 0.0	 0.0	 0.0	 0.0	 0.0	 0.0	 0.0	 0.0;
	896	 40.0	 45.0	 45.0	 -10.0	 1.06882	 71.1	 1	 40.0	 40.0	 0.0	 0.0	 0.0	 0.0	 0.0	 0.0	 0.0	 0.0	 0.0	 0.0	 0.0;
	902	 0.111	 0.011	 0.011	 0.0	 1.0143	 0.3	 1	 0.111	 0.111	 0.0	 0.0	 0.0	 0.0	 0.0	 0.0	 0.0	 0.0	 0.0	 0.0	 0.0;
...
];

%% generator cost data
%	2	startup	shutdown	n	c(n-1)	...	c0
mpc.gencost = [
	2	 0.0	 0.0	 3	   0.000000	 112.780000	   0.000000;
	2	 0.0	 0.0	 3	   0.000000	 112.780000	   0.000000;
	2	 0.0	 0.0	 3	   0.000000	  76.100000	   0.000000;
	2	 0.0	 0.0	 3	   0.000000	  76.100000	   0.000000;
	2	 0.0	 0.0	 3	   0.000000	  76.100000	   0.000000;
	2	 0.0	 0.0	 3	   0.000000	  76.100000	   0.000000;
	2	 0.0	 0.0	 3	   0.000000	  76.100000	   0.000000;
	2	 0.0	 0.0	 3	   0.000000	  76.100000	   0.000000;
	2	 0.0	 0.0	 3	   0.000000	  76.100000	   0.000000;
	2	 0.0	 0.0	 3	   0.000000	  76.100000	   0.000000;
	2	 0.0	 0.0	 3	   0.000000	  76.100000	   0.000000;
	2	 0.0	 0.0	 3	   0.000000	  76.100000	   0.000000;
	2	 0.0	 0.0	 3	   0.000000	  76.100000	   0.000000;
	2	 0.0	 0.0	 3	   0.000000	 102.050000	   0.000000;
	2	 0.0	 0.0	 3	   0.000000	 102.050000	   0.000000;
	2	 0.0	 0.0	 3	   0.000000	 102.050000	   0.000000;
	2	 0.0	 0.0	 3	   0.000000	 102.050000	   0.000000;
	2	 0.0	 0.0	 3	   0.000000	 102.050000	   0.000000;
	2	 0.0	 0.0	 3	   0.000000	 102.050000	   0.000000;
	2	 0.0	 0.0	 3	   0.000000	 102.050000	   0.000000;
	2	 0.0	 0.0	 3	   0.000000	 102.050000	   0.000000;
	2	 0.0	 0.0	 3	   0.000000	 105.350000	   0.000000;
	2	 0.0	 0.0	 3	   0.000000	 105.350000	   0.000000;
	2	 0.0	 0.0	 3	   0.000000	 105.350000	   0.000000;
	2	 0.0	 0.0	 3	   0.000000	 105.350000	   0.000000;
	2	 0.0	 0.0	 3	   0.000000	 105.350000	   0.000000;
	2	 0.0	 0.0	 3	   0.000000	 105.350000	   0.000000;
	2	 0.0	 0.0	 3	   0.000000	 105.350000	   0.000000;
	2	 0.0	 0.0	 3	   0.000000	   0.000000	   0.000000;
	2	 0.0	 0.0	 3	   0.000000	  95.310000	   0.000000;
	2	 0.0	 0.0	 3	   0.000000	  95.310000	   0.000000;
	2	 0.0	 0.0	 3	   0.000000	  95.310000	   0.000000;
	2	 0.0	 0.0	 3	   0.000000	  95.310000	   0.000000;
	2	 0.0	 0.0	 3	   0.000000	  95.310000	   0.000000;
	2	 0.0	 0.0	 3	   0.000000	  90.030000	   0.000000;
	2	 0.0	 0.0	 3	   0.000000	  90.030000	   0.000000;
	2	 0.0	 0.0	 3	   0.000000	  92.780000	   0.000000;
	2	 0.0	 0.0	 3	   0.000000	  92.780000	   0.000000;
	2	 0.0	 0.0	 3	   0.000000	  94.090000	   0.000000;
	2	 0.0	 0.0	 3	   0.000000	  94.090000	   0.000000;
	2	 0.0	 0.0	 3	   0.000000	  97.120000	   0.000000;
	2	 0.0	 0.0	 3	   0.000000	  97.120000	   0.000000;
	2	 0.0	 0.0	 3	   0.000000	  99.520000	   0.000000;
	2	 0.0	 0.0	 3	   0.000000	  91.160000	   0.000000;
	2	 0.0	 0.0	 3	   0.000000	  91.160000	   0.000000;
	2	 0.0	 0.0	 3	   0.000000	  91.160000	   0.000000;
	2	 0.0	 0.0	 3	   0.000000	  91.160000	   0.000000;
	2	 0.0	 0.0	 3	   0.000000	  91.160000	   0.000000;
	2	 0.0	 0.0	 3	   0.000000	   0.010000	   0.000000;
	2	 0.0	 0.0	 3	   0.000000	   0.010000	   0.000000;
	2	 0.0	 0.0	 3	   0.000000	   0.010000	   0.000000;
	2	 0.0	 0.0	 3	   0.000000	   0.010000	   0.000000;
	2	 0.0	 0.0	 3	   0.000000	  92.430000	   0.000000;
	2	 0.0	 0.0	 3	   0.000000	  92.430000	   0.000000;
	2	 0.0	 0.0	 3	   0.000000	  92.430000	   0.000000;
	2	 0.0	 0.0	 3	   0.000000	  96.420000	   0.000000;
	2	 0.0	 0.0	 3	   0.000000	  96.420000	   0.000000;
	2	 0.0	 0.0	 3	   0.000000	  96.420000	   0.000000;
	2	 0.0	 0.0	 3	   0.000000	 116.010000	   0.000000;
	2	 0.0	 0.0	 3	   0.000000	 116.010000	   0.000000;
	2	 0.0	 0.0	 3	   0.000000	 116.010000	   0.000000;
	2	 0.0	 0.0	 3	   0.000000	 116.010000	   0.000000;
	2	 0.0	 0.0	 3	   0.000000	 116.010000	   0.000000;
	2	 0.0	 0.0	 3	   0.000000	 116.010000	   0.000000;
	2	 0.0	 0.0	 3	   0.000000	 116.010000	   0.000000;
	2	 0.0	 0.0	 3	   0.000000	  98.840000	   0.000000;
	2	 0.0	 0.0	 3	   0.000000	  98.840000	   0.000000;
	2	 0.0	 0.0	 3	   0.000000	  98.840000	   0.000000;
	2	 0.0	 0.0	 3	   0.000000	  98.840000	   0.000000;
	2	 0.0	 0.0	 3	   0.000000	  98.840000	   0.000000;
	2	 0.0	 0.0	 3	   0.000000	  98.840000	   0.000000;
	2	 0.0	 0.0	 3	   0.000000	  98.840000	   0.000000;
	2	 0.0	 0.0	 3	   0.000000	  98.840000	   0.000000;
	2	 0.0	 0.0	 3	   0.000000	  98.840000	   0.000000;
	2	 0.0	 0.0	 3	   0.000000	  89.220000	   0.000000;
	2	 0.0	 0.0	 3	   0.000000	  89.220000	   0.000000;
	2	 0.0	 0.0	 3	   0.000000	  89.220000	   0.000000;
	2	 0.0	 0.0	 3	   0.000000	  89.220000	   0.000000;
	2	 0.0	 0.0	 3	   0.000000	   0.010000	   0.000000;
	2	 0.0	 0.0	 3	   0.000000	   0.010000	   0.000000;
	2	 0.0	 0.0	 3	   0.000000	   0.010000	   0.000000;
	2	 0.0	 0.0	 3	   0.000000	   0.010000	   0.000000;
	2	 0.0	 0.0	 3	   0.000000	   0.000000	   0.000000;
	2	 0.0	 0.0	 3	   0.000000	   0.000000	   0.000000;
	2	 0.0	 0.0	 3	   0.000000	   0.000000	   0.000000;
	2	 0.0	 0.0	 3	   0.000000	   0.000000	   0.000000;
	2	 0.0	 0.0	 3	   0.000000	   0.000000	   0.000000;
	2	 0.0	 0.0	 3	   0.000000	   0.000000	   0.000000;
	2	 0.0	 0.0	 3	   0.000000	   0.000000	   0.000000;
	2	 0.0	 0.0	 3	   0.000000	  76.100000	   0.000000;
	2	 0.0	 0.0	 3	   0.000000	   0.000000	   0.000000;
	2	 0.0	 0.0	 3	   0.000000	   0.000000	   0.000000;
	2	 0.0	 0.0	 3	   0.000000	   0.000000	   0.000000;
	2	 0.0	 0.0	 3	   0.000000	   0.000000	   0.000000;
	2	 0.0	 0.0	 3	   0.000000	   0.000000	   0.000000;
	2	 0.0	 0.0	 3	   0.000000	   0.000000	   0.000000;
	2	 0.0	 0.0	 3	   0.000000	   0.000000	   0.000000;
	2	 0.0	 0.0	 3	   0.000000	   0.000000	   0.000000;
	2	 0.0	 0.0	 3	   0.000000	   0.000000	   0.000000;
	2	 0.0	 0.0	 3	   0.000000	   0.000000	   0.000000;
	2	 0.0	 0.0	 3	   0.000000	   0.000000	   0.000000;
	2	 0.0	 0.0	 3	   0.000000	   0.000000	   0.000000;
	2	 0.0	 0.0	 3	   0.000000	   0.000000	   0.000000;
	2	 0.0	 0.0	 3	   0.000000	   0.000000	   0.000000;
	2	 0.0	 0.0	 3	   0.000000	   0.000000	   0.000000;
	2	 0.0	 0.0	 3	   0.000000	   0.000000	   0.000000;
	2	 0.0	 0.0	 3	   0.000000	   0.000000	   0.000000;
	2	 0.0	 0.0	 3	   0.000000	   0.000000	   0.000000;
	2	 0.0	 0.0	 3	   0.000000	   0.000000	   0.000000;
	2	 0.0	 0.0	 3	   0.000000	   0.000000	   0.000000;
	2	 0.0	 0.0	 3	   0.000000	   0.000000	   0.000000;
	2	 0.0	 0.0	 3	   0.000000	   0.000000	   0.000000;
	2	 0.0	 0.0	 3	   0.000000	   0.000000	   0.000000;
	2	 0.0	 0.0	 3	   0.000000	 112.780000	   0.000000;
	2	 0.0	 0.0	 3	   0.000000	 112.780000	   0.000000;
	2	 0.0	 0.0	 3	   0.000000	 112.780000	   0.000000;
	2	 0.0	 0.0	 3	   0.000000	   0.000000	   0.000000;
	2	 0.0	 0.0	 3	   0.000000	   0.000000	   0.000000;
	2	 0.0	 0.0	 3	   0.000000	   0.000000	   0.000000;
	2	 0.0	 0.0	 3	   0.000000	   0.000000	   0.000000;
	2	 0.0	 0.0	 3	   0.000000	   0.000000	   0.000000;
	2	 0.0	 0.0	 3	   0.000000	   0.000000	   0.000000;
	2	 0.0	 0.0	 3	   0.000000	   0.000000	   0.000000;
	2	 0.0	 0.0	 3	   0.000000	   0.000000	   0.000000;
	2	 0.0	 0.0	 3	   0.000000	   0.000000	   0.000000;
	2	 0.0	 0.0	 3	   0.000000	   0.000000	   0.000000;
	2	 0.0	 0.0	 3	   0.000000	   0.000000	   0.000000;
	2	 0.0	 0.0	 3	   0.000000	   0.000000	   0.000000;
	2	 0.0	 0.0	 3	   0.000000	   0.000000	   0.000000;
	2	 0.0	 0.0	 3	   0.000000	   0.000000	   0.000000;
	2	 0.0	 0.0	 3	   0.000000	   0.000000	   0.000000;
	2	 0.0	 0.0	 3	   0.000000	   0.000000	   0.000000;
	2	 0.0	 0.0	 3	   0.000000	   0.000000	   0.000000;
	2	 0.0	 0.0	 3	   0.000000	   0.000000	   0.000000;
	2	 0.0	 0.0	 3	   0.000000	   0.000000	   0.000000;
	2	 0.0	 0.0	 3	   0.000000	   0.000000	   0.000000;
	2	 0.0	 0.0	 3	   0.000000	   0.000000	   0.000000;
	2	 0.0	 0.0	 3	   0.000000	   0.000000	   0.000000;
	2	 0.0	 0.0	 3	   0.000000	   0.000000	   0.000000;
	2	 0.0	 0.0	 3	   0.000000	   0.000000	   0.000000;
	2	 0.0	 0.0	 3	   0.000000	   0.000000	   0.000000;
	2	 0.0	 0.0	 3	   0.000000	   0.000000	   0.000000;
	2	 0.0	 0.0	 3	   0.000000	   0.000000	   0.000000;
	2	 0.0	 0.0	 3	   0.000000	   0.000000	   0.000000;
	2	 0.0	 0.0	 3	   0.000000	   0.000000	   0.000000;
	2	 0.0	 0.0	 3	   0.000000	   0.000000	   0.000000;
	2	 0.0	 0.0	 3	   0.000000	   0.000000	   0.000000;
	2	 0.0	 0.0	 3	   0.000000	   0.000000	   0.000000;
	2	 0.0	 0.0	 3	   0.000000	   0.000000	   0.000000;
	2	 0.0	 0.0	 3	   0.000000	   0.000000	   0.000000;
	2	 0.0	 0.0	 3	   0.000000	   0.000000	   0.000000;
	2	 0.0	 0.0	 3	   0.000000	   0.000000	   0.000000;
	2	 0.0	 0.0	 3	   0.000000	   0.000000	   0.000000;
	2	 0.0	 0.0	 3	   0.000000	   0.000000	   0.000000;
	2	 0.0	 0.0	 3	   0.000000	   0.000000	   0.000000;
	2	 0.0	 0.0	 3	   0.000000	   0.000000	   0.000000;
	2	 0.0	 0.0	 3	   0.000000	   0.000000	   0.000000;
	2	 0.0	 0.0	 3	   0.000000	 102.050000	   0.000000;
	2	 0.0	 0.0	 3	   0.000000	 102.050000	   0.000000;
	2	 0.0	 0.0	 3	   0.000000	   0.000000	   0.000000;
	2	 0.0	 0.0	 3	   0.000000	   0.000000	   0.000000;
	2	 0.0	 0.0	 3	   0.000000	   0.000000	   0.000000;
	2	 0.0	 0.0	 3	   0.000000	   0.000000	   0.000000;
	2	 0.0	 0.0	 3	   0.000000	   0.000000	   0.000000;
	2	 0.0	 0.0	 3	   0.000000	   0.000000	   0.000000;
	2	 0.0	 0.0	 3	   0.000000	   0.000000	   0.000000;
	2	 0.0	 0.0	 3	   0.000000	   0.000000	   0.000000;
	2	 0.0	 0.0	 3	   0.000000	   0.000000	   0.000000;
	2	 0.0	 0.0	 3	   0.000000	   0.000000	   0.000000;
	2	 0.0	 0.0	 3	   0.000000	   0.000000	   0.000000;
	2	 0.0	 0.0	 3	   0.000000	   0.000000	   0.000000;
	2	 0.0	 0.0	 3	   0.000000	 105.350000	   0.000000;
	2	 0.0	 0.0	 3	   0.000000	   0.000000	   0.000000;
	2	 0.0	 0.0	 3	   0.000000	   0.000000	   0.000000;
	2	 0.0	 0.0	 3	   0.000000	   0.000000	   0.000000;
	2	 0.0	 0.0	 3	   0.000000	   0.000000	   0.000000;
	2	 0.0	 0.0	 3	   0.000000	   0.000000	   0.000000;
	2	 0.0	 0.0	 3	   0.000000	   0.000000	   0.000000;
	2	 0.0	 0.0	 3	   0.000000	   0.000000	   0.000000;
	2	 0.0	 0.0	 3	   0.000000	   0.000000	   0.000000;
	2	 0.0	 0.0	 3	   0.000000	   0.010000	   0.000000;
	2	 0.0	 0.0	 3	   0.000000	   0.010000	   0.000000;
	2	 0.0	 0.0	 3	   0.000000	   0.010000	   0.000000;
	2	 0.0	 0.0	 3	   0.000000	   0.010000	   0.000000;
	2	 0.0	 0.0	 3	   0.000000	 111.630000	   0.000000;
	2	 0.0	 0.0	 3	   0.000000	 111.630000	   0.000000;
	2	 0.0	 0.0	 3	   0.000000	   0.000000	   0.000000;
	2	 0.0	 0.0	 3	   0.000000	   0.000000	   0.000000;
	2	 0.0	 0.0	 3	   0.000000	   0.000000	   0.000000;
	2	 0.0	 0.0	 3	   0.000000	   0.000000	   0.000000;
	2	 0.0	 0.0	 3	   0.000000	   0.000000	   0.000000;
	2	 0.0	 0.0	 3	   0.000000	   0.000000	   0.000000;
	2	 0.0	 0.0	 3	   0.000000	   0.000000	   0.000000;
	2	 0.0	 0.0	 3	   0.000000	   0.000000	   0.000000;
	2	 0.0	 0.0	 3	   0.000000	   0.000000	   0.000000;
	2	 0.0	 0.0	 3	   0.000000	   0.000000	   0.000000;
	2	 0.0	 0.0	 3	   0.000000	   0.000000	   0.000000;
	2	 0.0	 0.0	 3	   0.000000	   0.000000	   0.000000;
	2	 0.0	 0.0	 3	   0.000000	   0.000000	   0.000000;
	2	 0.0	 0.0	 3	   0.000000	   0.000000	   0.000000;
...
];

%% branch data
%	fbus	tbus	r	x	b	rateA	rateB	rateC	ratio	angle	status	angmin	angmax
mpc.branch = [
	7	 8	 0.00064	 0.0305	 0.0	 400.0	 400.0	 400.0	 1.0435	 -0.6	 1	 -30.0	 30.0;
	26	 28	 0.00036	 0.02519	 0.0	 500.0	 500.0	 500.0	 1.0627	 0.0	 1	 -30.0	 30.0;
	27	 29	 0.00036	 0.02519	 0.0	 500.0	 500.0	 500.0	 1.0623	 0.0	 1	 -30.0	 30.0;
	40	 42	 0.00034	 0.02097	 0.0	 500.0	 500.0	 500.0	 1.1011	 0.0	 1	 -30.0	 30.0;
	43	 46	 0.00034	 0.02097	 0.0	 500.0	 500.0	 500.0	 1.0733	 0.0	 1	 -30.0	 30.0;
	55	 57	 0.00081	 0.03	 0.0	 400.0	 400.0	 400.0	 1.0547	 0.0	 1	 -30.0	 30.0;
	90	 92	 0.00075	 0.02444	 -0.00832	 330.0	 330.0	 330.0	 1.0508	 0.0	 1	 -30.0	 30.0;
	91	 93	 0.00075	 0.02469	 -0.008	 330.0	 330.0	 330.0	 1.0499	 0.0	 1	 -30.0	 30.0;
	125	 128	 0.0005	 0.02875	 -0.016	 400.0	 400.0	 400.0	 1.0677	 0.0	 1	 -30.0	 30.0;
	149	 150	 0.00064	 0.0305	 0.0	 400.0	 400.0	 400.0	 1.0568	 0.0	 1	 -30.0	 30.0;
	155	 158	 0.000232	 0.023	 0.0	 500.0	 500.0	 500.0	 1.049	 0.0	 1	 -30.0	 30.0;
	156	 159	 0.000232	 0.023	 0.0	 500.0	 500.0	 500.0	 1.0479	 0.0	 1	 -30.0	 30.0;
	170	 172	 0.00035	 0.02375	 0.0	 500.0	 500.0	 500.0	 1.195	 0.0	 1	 -30.0	 30.0;
	183	 184	 0.00059	 0.03093	 0.0	 400.0	 400.0	 400.0	 1.0847	 0.0	 1	 -30.0	 30.0;
	190	 192	 0.0004	 0.03	 0.0	 500.0	 500.0	 500.0	 1.0485	 0.0	 1	 -30.0	 30.0;
	2735	 158	 0.00031	 0.00338	 0.0992	 1386.0	 1386.0	 1386.0	 0.0	 0.0	 1	 -30.0	 30.0;
	2735	 159	 0.00031	 0.00338	 0.0992	 1386.0	 1386.0	 1386.0	 0.0	 0.0	 1	 -30.0	 30.0;
	2736	 68	 0.014341	 0.083531	 0.126034	 415.0	 415.0	 415.0	 0.0	 0.0	 1	 -30.0	 30.0;
	2734	 76	 0.01219	 0.070659	 0.117418	 412.0	 412.0	 412.0	 0.0	 0.0	 1	 -30.0	 30.0;
	2734	 105	 0.011781	 0.07087	 0.116838	 412.0	 412.0	 412.0	 0.0	 0.0	 1	 -30.0	 30.0;
	2739	 200	 1e-05	 9e-05	 0.0	 924.0	 924.0	 924.0	 0.0	 0.0	 1	 -30.0	 30.0;
	128	 2732	 0.0015	 0.01469	 0.40384	 1386.0	 1386.0	 1386.0	 0.0	 0.0	 0	 -30.0	 30.0;
	127	 2733	 0.001419	 0.014675	 0.4896	 1386.0	 1386.0	 1386.0	 0.0	 0.0	 1	 -30.0	 30.0;
	2737	 148	 0.001651	 0.015909	 0.046948	 373.0	 373.0	 373.0	 0.0	 0.0	 1	 -30.0	 30.0;
	2737	 149	 0.001651	 0.015909	 0.046948	 373.0	 373.0	 373.0	 0.0	 0.0	 1	 -30.0	 30.0;
	2738	 48	 0.00188	 0.02287	 0.6432	 831.0	 831.0	 831.0	 0.0	 0.0	 1	 -30.0	 30.0;
	2738	 49	 0.00188	 0.02287	 0.6432	 831.0	 831.0	 831.0	 0.0	 0.0	 1	 -30.0	 30.0;
	82	 2732	 0.003519	 0.039313	 1.0336	 1621.0	 1621.0	 1621.0	 0.0	 0.0	 1	 -30.0	 30.0;
	43	 23	 0.01345	 0.081141	 0.141134	 339.0	 339.0	 339.0	 0.0	 0.0	 1	 -30.0	 30.0;
	26	 90	 0.009091	 0.062401	 0.111417	 457.0	 457.0	 457.0	 0.0	 0.0	 1	 -30.0	 30.0;
	27	 91	 0.00868	 0.06405	 0.096994	 457.0	 457.0	 457.0	 0.0	 0.0	 1	 -30.0	 30.0;
	146	 30	 0.016961	 0.123659	 0.196988	 373.0	 373.0	 373.0	 0.0	 0.0	 1	 -30.0	 30.0;
	135	 34	 0.00512	 0.02618	 0.029621	 335.0	 335.0	 335.0	 0.0	 0.0	 1	 -30.0	 30.0;
	134	 20	 0.01068	 0.061961	 0.094961	 415.0	 415.0	 415.0	 0.0	 0.0	 1	 -30.0	 30.0;
	165	 21	 0.014651	 0.105891	 0.170852	 373.0	 373.0	 373.0	 0.0	 0.0	 1	 -30.0	 30.0;
	41	 109	 0.01488	 0.08161	 0.114805	 347.0	 347.0	 347.0	 0.0	 0.0	 1	 -30.0	 30.0;
	40	 91	 0.011159	 0.07231	 0.103673	 362.0	 362.0	 362.0	 0.0	 0.0	 1	 -30.0	 30.0;
	179	 83	 0.008616	 0.077645	 0.122239	 373.0	 373.0	 373.0	 0.0	 0.0	 1	 -30.0	 30.0;
	203	 166	 0.01176	 0.068289	 0.102802	 362.0	 362.0	 362.0	 0.0	 0.0	 1	 -30.0	 30.0;
	194	 166	 0.016818	 0.089091	 0.129935	 400.0	 400.0	 400.0	 0.0	 0.0	 1	 -30.0	 30.0;
	193	 165	 0.013843	 0.087025	 0.134842	 427.0	 427.0	 427.0	 0.0	 0.0	 1	 -30.0	 30.0;
	207	 168	 0.01676	 0.097169	 0.148685	 274.0	 274.0	 274.0	 0.0	 0.0	 1	 -30.0	 30.0;
	43	 12	 0.01269	 0.074979	 0.130196	 377.0	 377.0	 377.0	 0.0	 0.0	 1	 -30.0	 30.0;
	198	 18	 0.014091	 0.10413	 0.15972	 373.0	 373.0	 373.0	 0.0	 0.0	 1	 -30.0	 30.0;
	100	 55	 0.003719	 0.0438	 0.100962	 457.0	 457.0	 457.0	 0.0	 0.0	 1	 -30.0	 30.0;
	163	 82	 0.00194	 0.02056	 0.51584	 1316.0	 1316.0	 1316.0	 0.0	 0.0	 1	 -30.0	 30.0;
	45	 9	 0.0015	 0.01506	 0.4032	 1386.0	 1386.0	 1386.0	 0.0	 0.0	 1	 -30.0	 30.0;
	185	 151	 0.00294	 0.03463	 0.9216	 693.0	 693.0	 693.0	 0.0	 0.0	 1	 -30.0	 30.0;
	121	 57	 0.00169	 0.01994	 0.50624	 831.0	 831.0	 831.0	 0.0	 0.0	 1	 -30.0	 30.0;
	29	 93	 0.00137	 0.01625	 0.41184	 1386.0	 1386.0	 1386.0	 0.0	 0.0	 1	 -30.0	 30.0;
	28	 123	 0.00231	 0.02769	 0.70144	 1386.0	 1386.0	 1386.0	 0.0	 0.0	 1	 -30.0	 30.0;
	25	 192	 0.00207	 0.02474	 0.664	 831.0	 831.0	 831.0	 0.0	 0.0	 1	 -30.0	 30.0;
	120	 64	 0.0015	 0.01788	 0.4512	 831.0	 831.0	 831.0	 0.0	 0.0	 1	 -30.0	 30.0;
	122	 65	 0.00469	 0.05544	 1.4048	 831.0	 831.0	 831.0	 0.0	 0.0	 0	 -30.0	 30.0;
	82	 31	 0.00331	 0.03425	 0.85888	 1150.0	 1150.0	 1150.0	 0.0	 0.0	 1	 -30.0	 30.0;
	92	 28	 0.00219	 0.02369	 0.59584	 1316.0	 1316.0	 1316.0	 0.0	 0.0	 1	 -30.0	 30.0;
	10	 4	 0.01674	 0.09711	 0.144232	 461.0	 461.0	 461.0	 0.0	 0.0	 1	 -30.0	 30.0;
	30	 11	 0.0057	 0.0407	 0.06021	 373.0	 373.0	 373.0	 0.0	 0.0	 1	 -30.0	 30.0;
	33	 4	 0.004419	 0.032229	 0.049852	 392.0	 392.0	 392.0	 0.0	 0.0	 1	 -30.0	 30.0;
	17	 7	 0.014591	 0.11219	 0.165528	 427.0	 427.0	 427.0	 0.0	 0.0	 1	 -30.0	 30.0;
	21	 10	 0.01211	 0.087419	 0.140166	 373.0	 373.0	 373.0	 0.0	 0.0	 1	 -30.0	 30.0;
	26	 5	 0.009773	 0.050516	 0.088959	 377.0	 377.0	 377.0	 0.0	 0.0	 1	 -30.0	 30.0;
	17	 3	 0.01068	 0.07895	 0.122597	 274.0	 274.0	 274.0	 0.0	 0.0	 1	 -30.0	 30.0;
	26	 19	 0.0057	 0.039521	 0.075533	 480.0	 480.0	 480.0	 0.0	 0.0	 1	 -30.0	 30.0;
	27	 20	 0.0057	 0.039521	 0.075533	 480.0	 480.0	 480.0	 0.0	 0.0	 1	 -30.0	 30.0;
	11	 6	 0.00525	 0.03988	 0.061952	 373.0	 373.0	 373.0	 0.0	 0.0	 1	 -30.0	 30.0;
	32	 11	 0.00093	 0.00651	 0.011132	 373.0	 373.0	 373.0	 0.0	 0.0	 1	 -30.0	 30.0;
	23	 12	 0.00205	 0.01326	 0.022429	 415.0	 415.0	 415.0	 0.0	 0.0	 1	 -30.0	 30.0;
	34	 5	 0.007831	 0.043	 0.04962	 335.0	 335.0	 335.0	 0.0	 0.0	 1	 -30.0	 30.0;
	19	 4	 0.00293	 0.01599	 0.024781	 362.0	 362.0	 362.0	 0.0	 0.0	 1	 -30.0	 30.0;
	26	 1	 0.00155	 0.01169	 0.018198	 747.0	 747.0	 747.0	 0.0	 0.0	 1	 -30.0	 30.0;
	27	 2	 0.00155	 0.01169	 0.018198	 747.0	 747.0	 747.0	 0.0	 0.0	 1	 -30.0	 30.0;
	27	 33	 0.003841	 0.028531	 0.045883	 392.0	 392.0	 392.0	 0.0	 0.0	 1	 -30.0	 30.0;
	24	 33	 2e-06	 2.1e-05	 0.0	 392.0	 392.0	 392.0	 0.0	 0.0	 1	 -30.0	 30.0;
	25	 9	 0.00298	 0.03417	 0.93504	 831.0	 831.0	 831.0	 0.0	 0.0	 1	 -30.0	 30.0;
	28	 25	 0.00358	 0.04262	 1.0944	 1386.0	 1386.0	 1386.0	 0.0	 0.0	 1	 -30.0	 30.0;
	14	 29	 0.00336	 0.03977	 1.02163	 1316.0	 1316.0	 1316.0	 0.0	 0.0	 1	 -30.0	 30.0;
...